CHEMBL3787662
  SciTegic08122012322D

 35 39  0  0  0  0            999 V2000
    2.5677    5.9984    0.0000 C   0  0
    3.8704    5.2547    0.0000 C   0  0
    3.8787    3.7539    0.0000 C   0  0
    2.5835    2.9972    0.0000 O   0  0
    5.1821    3.0099    0.0000 N   0  0
    5.1903    1.5091    0.0000 C   0  0
    6.4920    0.7636    0.0000 C   0  0
    6.4972   -0.7364    0.0000 C   0  0
    5.2007   -1.4909    0.0000 C   0  0
    3.8990   -0.7455    0.0000 C   0  0
    2.6003   -1.4977    0.0000 O   0  0
    1.2990   -0.7500    0.0000 C   0  0
    1.2990    0.7500    0.0000 N   0  0
    0.0000    1.5000    0.0000 C   0  0
   -0.0031    3.0008    0.0000 N   0  0
   -1.3039    3.7494    0.0000 C   0  0
   -1.3092    5.2494    0.0000 C   0  0
   -2.6108    5.9949    0.0000 C   0  0
   -3.9073    5.2404    0.0000 C   0  0
   -5.2096    5.9863    0.0000 N   0  0
   -5.2172    7.4863    0.0000 C   0  0
   -6.5200    8.2297    0.0000 C   0  0
   -7.8153    7.4732    0.0000 N   0  0
   -9.1181    8.2166    0.0000 C   0  0
   -7.8077    5.9732    0.0000 C   0  0
   -6.5049    5.2298    0.0000 C   0  0
   -3.9021    3.7404    0.0000 C   0  0
   -2.6005    2.9949    0.0000 C   0  0
   -1.2990    0.7500    0.0000 N   0  0
   -1.2990   -0.7500    0.0000 C   0  0
   -2.4133   -1.7530    0.0000 N   0  0
   -1.8032   -3.1233    0.0000 C   0  0
   -0.3114   -2.9665    0.0000 C   0  0
    0.0000   -1.5000    0.0000 C   0  0
    3.8939    0.7546    0.0000 C   0  0
  1  2  2  0
  2  3  1  0
  3  4  2  0
  3  5  1  0
  5  6  1  0
  6  7  2  0
  7  8  1  0
  8  9  2  0
  9 10  1  0
 10 11  1  0
 11 12  1  0
 12 13  2  0
 13 14  1  0
 14 15  1  0
 15 16  1  0
 16 17  2  0
 17 18  1  0
 18 19  2  0
 19 20  1  0
 20 21  1  0
 21 22  1  0
 22 23  1  0
 23 24  1  0
 23 25  1  0
 25 26  1  0
 26 20  1  0
 19 27  1  0
 27 28  2  0
 28 16  1  0
 14 29  2  0
 29 30  1  0
 30 31  1  0
 31 32  1  0
 32 33  2  0
 33 34  1  0
 34 12  1  0
 34 30  2  0
 10 35  2  0
 35  6  1  0
M  END
> <Name>
CHEMBL3787662

> <pChEMBL_Value>
9.10

$$$$
CHEMBL1229592
  SciTegic08122012322D

 35 38  0  0  0  0            999 V2000
    3.8912   -5.2570    0.0000 C   0  0
    3.8933   -3.7570    0.0000 C   0  0
    2.5951   -3.0039    0.0000 C   0  0
    1.2948   -3.7516    0.0000 O   0  0
    2.5973   -1.5031    0.0000 N   0  0
    1.2990   -0.7500    0.0000 C   0  0
    1.2990    0.7500    0.0000 C   0  0
    0.0000    1.5000    0.0000 C   0  0
   -1.2990    0.7500    0.0000 C   0  0
   -1.2990   -0.7500    0.0000 C   0  0
   -2.5972   -1.5031    0.0000 O   0  0
   -2.5951   -3.0039    0.0000 C   0  0
   -1.2935   -3.7495    0.0000 N   0  0
   -1.2883   -5.2495    0.0000 C   0  0
    0.0125   -5.9981    0.0000 N   0  0
    0.0156   -7.4989    0.0000 C   0  0
   -1.2835   -8.2490    0.0000 C   0  0
   -1.2835   -9.7490    0.0000 C   0  0
    0.0156  -10.4990    0.0000 C   0  0
    0.0156  -11.9998    0.0000 N   0  0
   -1.2823  -12.7520    0.0000 C   0  0
   -1.2799  -14.2520    0.0000 C   0  0
    0.0203  -14.9999    0.0000 N   0  0
    0.0227  -16.4999    0.0000 C   0  0
    1.3182  -14.2478    0.0000 C   0  0
    1.3158  -12.7478    0.0000 C   0  0
    1.3146   -9.7490    0.0000 C   0  0
    1.3146   -8.2490    0.0000 C   0  0
    2.6159   -7.5013    0.0000 O   0  0
    3.9139   -8.2532    0.0000 C   0  0
   -2.5847   -6.0040    0.0000 N   0  0
   -3.8863   -5.2585    0.0000 C   0  0
   -3.8915   -3.7585    0.0000 C   0  0
   -5.1932   -3.0130    0.0000 Cl  0  0
    0.0000   -1.5000    0.0000 C   0  0
  1  2  2  0
  2  3  1  0
  3  4  2  0
  3  5  1  0
  5  6  1  0
  6  7  2  0
  7  8  1  0
  8  9  2  0
  9 10  1  0
 10 11  1  0
 11 12  1  0
 12 13  2  0
 13 14  1  0
 14 15  1  0
 15 16  1  0
 16 17  2  0
 17 18  1  0
 18 19  2  0
 19 20  1  0
 20 21  1  0
 21 22  1  0
 22 23  1  0
 23 24  1  0
 23 25  1  0
 25 26  1  0
 26 20  1  0
 19 27  1  0
 27 28  2  0
 28 16  1  0
 28 29  1  0
 29 30  1  0
 14 31  2  0
 31 32  1  0
 32 33  2  0
 33 12  1  0
 33 34  1  0
 10 35  2  0
 35  6  1  0
M  END
> <Name>
CHEMBL1229592

> <pChEMBL_Value>
8.96

$$$$
CHEMBL3699596
  SciTegic08122012322D

 41 44  0  0  0  0            999 V2000
    3.8912   -5.2570    0.0000 C   0  0
    3.8933   -3.7570    0.0000 C   0  0
    2.5951   -3.0039    0.0000 C   0  0
    1.2948   -3.7516    0.0000 O   0  0
    2.5973   -1.5031    0.0000 N   0  0
    1.2990   -0.7500    0.0000 C   0  0
    1.2990    0.7500    0.0000 C   0  0
    0.0000    1.5000    0.0000 C   0  0
   -1.2990    0.7500    0.0000 C   0  0
   -1.2990   -0.7500    0.0000 C   0  0
   -2.5972   -1.5031    0.0000 O   0  0
   -2.5951   -3.0039    0.0000 C   0  0
   -1.2935   -3.7495    0.0000 N   0  0
   -1.2883   -5.2495    0.0000 C   0  0
    0.0125   -5.9981    0.0000 N   0  0
    0.0156   -7.4989    0.0000 C   0  0
   -1.2835   -8.2490    0.0000 C   0  0
   -1.2835   -9.7490    0.0000 C   0  0
    0.0156  -10.4990    0.0000 C   0  0
    0.0156  -11.9998    0.0000 N   0  0
   -1.2823  -12.7520    0.0000 C   0  0
   -1.2799  -14.2520    0.0000 C   0  0
    0.0203  -14.9999    0.0000 N   0  0
    0.0258  -16.5007    0.0000 C   0  0
   -1.2707  -17.2550    0.0000 O   0  0
    1.3278  -17.2472    0.0000 O   0  0
    1.3333  -18.7472    0.0000 C   0  0
    1.3182  -14.2478    0.0000 C   0  0
    1.3158  -12.7478    0.0000 C   0  0
    1.3146   -9.7490    0.0000 C   0  0
    1.3146   -8.2490    0.0000 C   0  0
    2.6159   -7.5013    0.0000 O   0  0
    3.9139   -8.2532    0.0000 C   0  0
   -2.5847   -6.0040    0.0000 N   0  0
   -3.8863   -5.2585    0.0000 C   0  0
   -3.8915   -3.7585    0.0000 C   0  0
   -5.1939   -3.0126    0.0000 C   0  0
   -6.4908   -3.7663    0.0000 F   0  0
   -5.1987   -1.5126    0.0000 F   0  0
   -6.4952   -2.2666    0.0000 F   0  0
    0.0000   -1.5000    0.0000 C   0  0
  1  2  2  0
  2  3  1  0
  3  4  2  0
  3  5  1  0
  5  6  1  0
  6  7  2  0
  7  8  1  0
  8  9  2  0
  9 10  1  0
 10 11  1  0
 11 12  1  0
 12 13  2  0
 13 14  1  0
 14 15  1  0
 15 16  1  0
 16 17  2  0
 17 18  1  0
 18 19  2  0
 19 20  1  0
 20 21  1  0
 21 22  1  0
 22 23  1  0
 23 24  1  0
 24 25  2  0
 24 26  1  0
 26 27  1  0
 23 28  1  0
 28 29  1  0
 29 20  1  0
 19 30  1  0
 30 31  2  0
 31 16  1  0
 31 32  1  0
 32 33  1  0
 14 34  2  0
 34 35  1  0
 35 36  2  0
 36 12  1  0
 36 37  1  0
 37 38  1  0
 37 39  1  0
 37 40  1  0
 10 41  2  0
 41  6  1  0
M  END
> <Name>
CHEMBL3699596

> <pChEMBL_Value>
8.26

$$$$
CHEMBL3699611
  SciTegic08122012322D

 35 38  0  0  0  0            999 V2000
    7.6472   -5.4375    0.0000 C   0  0
    9.1243   -5.6982    0.0000 C   0  0
   10.0899   -4.5492    0.0000 C   0  0
    9.5775   -3.1394    0.0000 O   0  0
   11.5679   -4.8100    0.0000 N   0  0
   12.5335   -3.6610    0.0000 C   0  0
   14.0111   -3.9196    0.0000 C   0  0
   14.9737   -2.7693    0.0000 C   0  0
   14.4589   -1.3604    0.0000 C   0  0
   12.9813   -1.1018    0.0000 C   0  0
   12.4633    0.3068    0.0000 O   0  0
   10.9846    0.5635    0.0000 C   0  0
   10.0259   -0.5902    0.0000 N   0  0
    8.5474   -0.3368    0.0000 C   0  0
    7.5858   -1.4891    0.0000 N   0  0
    6.1069   -1.2335    0.0000 C   0  0
    5.5920    0.1754    0.0000 C   0  0
    4.1145    0.4339    0.0000 C   0  0
    3.1484   -0.7186    0.0000 C   0  0
    1.6852   -0.3846    0.0000 N   0  0
    1.3514    1.0778    0.0000 C   0  0
    0.0000    1.7286    0.0000 C   0  0
   -1.3515    1.0777    0.0000 C   0  0
   -1.6852   -0.3847    0.0000 O   0  0
   -0.7500   -1.5574    0.0000 C   0  0
    0.7500   -1.5574    0.0000 C   0  0
    3.6667   -2.1252    0.0000 C   0  0
    5.1442   -2.3838    0.0000 C   0  0
    5.6565   -3.7945    0.0000 O   0  0
    4.6921   -4.9435    0.0000 C   0  0
    8.0277    1.0704    0.0000 N   0  0
    8.9864    2.2240    0.0000 C   0  0
   10.4648    1.9705    0.0000 C   0  0
   11.4235    3.1242    0.0000 Cl  0  0
   12.0186   -2.2522    0.0000 C   0  0
  1  2  2  0
  2  3  1  0
  3  4  2  0
  3  5  1  0
  5  6  1  0
  6  7  2  0
  7  8  1  0
  8  9  2  0
  9 10  1  0
 10 11  1  0
 11 12  1  0
 12 13  2  0
 13 14  1  0
 14 15  1  0
 15 16  1  0
 16 17  2  0
 17 18  1  0
 18 19  2  0
 19 20  1  0
 20 21  1  0
 21 22  1  0
 22 23  1  0
 23 24  1  0
 24 25  1  0
 25 26  1  0
 26 20  1  0
 19 27  1  0
 27 28  2  0
 28 16  1  0
 28 29  1  0
 29 30  1  0
 14 31  2  0
 31 32  1  0
 32 33  2  0
 33 12  1  0
 33 34  1  0
 10 35  2  0
 35  6  1  0
M  END
> <Name>
CHEMBL3699611

> <pChEMBL_Value>
8.26

$$$$
CHEMBL3944027
  SciTegic08122012322D

 32 34  0  0  0  0            999 V2000
    3.8912   -5.2570    0.0000 C   0  0
    3.8933   -3.7570    0.0000 C   0  0
    2.5951   -3.0039    0.0000 C   0  0
    1.2948   -3.7516    0.0000 O   0  0
    2.5973   -1.5031    0.0000 N   0  0
    1.2990   -0.7500    0.0000 C   0  0
    1.2990    0.7500    0.0000 C   0  0
    0.0000    1.5000    0.0000 C   0  0
   -1.2990    0.7500    0.0000 C   0  0
   -1.2990   -0.7500    0.0000 C   0  0
   -2.5972   -1.5031    0.0000 O   0  0
   -2.5951   -3.0039    0.0000 C   0  0
   -1.2935   -3.7495    0.0000 N   0  0
   -1.2883   -5.2495    0.0000 C   0  0
    0.0125   -5.9981    0.0000 N   0  0
    0.0156   -7.4989    0.0000 C   0  0
   -1.2835   -8.2490    0.0000 C   0  0
   -1.2835   -9.7490    0.0000 C   0  0
    0.0156  -10.4990    0.0000 C   0  0
    0.0125  -11.9999    0.0000 O   0  0
   -1.2876  -12.7480    0.0000 C   0  0
    1.3146   -9.7490    0.0000 C   0  0
    2.6159  -10.4968    0.0000 O   0  0
    3.9139   -9.7449    0.0000 C   0  0
    1.3146   -8.2490    0.0000 C   0  0
    2.6128   -7.4960    0.0000 O   0  0
    2.6108   -5.9960    0.0000 C   0  0
   -2.5847   -6.0040    0.0000 N   0  0
   -3.8863   -5.2585    0.0000 C   0  0
   -3.8915   -3.7585    0.0000 C   0  0
   -5.1932   -3.0130    0.0000 Cl  0  0
    0.0000   -1.5000    0.0000 C   0  0
  1  2  2  0
  2  3  1  0
  3  4  2  0
  3  5  1  0
  5  6  1  0
  6  7  2  0
  7  8  1  0
  8  9  2  0
  9 10  1  0
 10 11  1  0
 11 12  1  0
 12 13  2  0
 13 14  1  0
 14 15  1  0
 15 16  1  0
 16 17  2  0
 17 18  1  0
 18 19  2  0
 19 20  1  0
 20 21  1  0
 19 22  1  0
 22 23  1  0
 23 24  1  0
 22 25  2  0
 25 16  1  0
 25 26  1  0
 26 27  1  0
 14 28  2  0
 28 29  1  0
 29 30  2  0
 30 12  1  0
 30 31  1  0
 10 32  2  0
 32  6  1  0
M  END
> <Name>
CHEMBL3944027

> <pChEMBL_Value>
8.26

$$$$
CHEMBL1643971
  SciTegic08122012322D

 34 37  0  0  0  0            999 V2000
    3.8912   -5.2570    0.0000 C   0  0
    3.8933   -3.7570    0.0000 C   0  0
    2.5951   -3.0039    0.0000 C   0  0
    1.2948   -3.7516    0.0000 O   0  0
    2.5973   -1.5031    0.0000 N   0  0
    1.2990   -0.7500    0.0000 C   0  0
    1.2990    0.7500    0.0000 C   0  0
    0.0000    1.5000    0.0000 C   0  0
   -1.2990    0.7500    0.0000 C   0  0
   -1.2990   -0.7500    0.0000 C   0  0
   -2.5972   -1.5031    0.0000 O   0  0
   -2.5951   -3.0039    0.0000 C   0  0
   -1.2935   -3.7495    0.0000 N   0  0
   -1.2883   -5.2495    0.0000 C   0  0
    0.0125   -5.9981    0.0000 N   0  0
    0.0156   -7.4989    0.0000 C   0  0
   -1.2835   -8.2490    0.0000 C   0  0
   -1.2835   -9.7490    0.0000 C   0  0
    0.0156  -10.4990    0.0000 C   0  0
    0.0156  -11.9998    0.0000 N   0  0
   -1.2823  -12.7520    0.0000 C   0  0
   -1.2799  -14.2520    0.0000 C   0  0
    0.0203  -14.9999    0.0000 O   0  0
    1.3182  -14.2478    0.0000 C   0  0
    1.3158  -12.7478    0.0000 C   0  0
    1.3146   -9.7490    0.0000 C   0  0
    1.3146   -8.2490    0.0000 C   0  0
    2.6159   -7.5013    0.0000 O   0  0
    3.9139   -8.2532    0.0000 C   0  0
   -2.5847   -6.0040    0.0000 N   0  0
   -3.8863   -5.2585    0.0000 C   0  0
   -3.8915   -3.7585    0.0000 C   0  0
   -5.1932   -3.0130    0.0000 Cl  0  0
    0.0000   -1.5000    0.0000 C   0  0
  1  2  2  0
  2  3  1  0
  3  4  2  0
  3  5  1  0
  5  6  1  0
  6  7  2  0
  7  8  1  0
  8  9  2  0
  9 10  1  0
 10 11  1  0
 11 12  1  0
 12 13  2  0
 13 14  1  0
 14 15  1  0
 15 16  1  0
 16 17  2  0
 17 18  1  0
 18 19  2  0
 19 20  1  0
 20 21  1  0
 21 22  1  0
 22 23  1  0
 23 24  1  0
 24 25  1  0
 25 20  1  0
 19 26  1  0
 26 27  2  0
 27 16  1  0
 27 28  1  0
 28 29  1  0
 14 30  2  0
 30 31  1  0
 31 32  2  0
 32 12  1  0
 32 33  1  0
 10 34  2  0
 34  6  1  0
M  END
> <Name>
CHEMBL1643971

> <pChEMBL_Value>
8.26

$$$$
CHEMBL3699588
  SciTegic08122012322D

 40 43  0  0  0  0            999 V2000
    3.8912   -5.2570    0.0000 C   0  0
    3.8933   -3.7570    0.0000 C   0  0
    2.5951   -3.0039    0.0000 C   0  0
    1.2948   -3.7516    0.0000 O   0  0
    2.5973   -1.5031    0.0000 N   0  0
    1.2990   -0.7500    0.0000 C   0  0
    1.2990    0.7500    0.0000 C   0  0
    0.0000    1.5000    0.0000 C   0  0
   -1.2990    0.7500    0.0000 C   0  0
   -1.2990   -0.7500    0.0000 C   0  0
   -2.5972   -1.5031    0.0000 O   0  0
   -2.5951   -3.0039    0.0000 C   0  0
   -1.2935   -3.7495    0.0000 N   0  0
   -1.2883   -5.2495    0.0000 C   0  0
    0.0125   -5.9981    0.0000 N   0  0
    0.0156   -7.4989    0.0000 C   0  0
   -1.2835   -8.2490    0.0000 C   0  0
   -1.2835   -9.7490    0.0000 C   0  0
    0.0156  -10.4990    0.0000 C   0  0
    0.0156  -11.9998    0.0000 N   0  0
   -1.2823  -12.7520    0.0000 C   0  0
   -1.2799  -14.2520    0.0000 C   0  0
    0.0203  -14.9999    0.0000 N   0  0
    0.0258  -16.5007    0.0000 C   0  0
   -1.2707  -17.2550    0.0000 C   0  0
    1.3271  -17.2468    0.0000 O   0  0
    1.3182  -14.2478    0.0000 C   0  0
    1.3158  -12.7478    0.0000 C   0  0
    1.3146   -9.7490    0.0000 C   0  0
    1.3146   -8.2490    0.0000 C   0  0
    2.6159   -7.5013    0.0000 O   0  0
    3.9139   -8.2532    0.0000 C   0  0
   -2.5847   -6.0040    0.0000 N   0  0
   -3.8863   -5.2585    0.0000 C   0  0
   -3.8915   -3.7585    0.0000 C   0  0
   -5.1939   -3.0126    0.0000 C   0  0
   -6.4908   -3.7663    0.0000 F   0  0
   -5.1987   -1.5126    0.0000 F   0  0
   -6.4952   -2.2666    0.0000 F   0  0
    0.0000   -1.5000    0.0000 C   0  0
  1  2  2  0
  2  3  1  0
  3  4  2  0
  3  5  1  0
  5  6  1  0
  6  7  2  0
  7  8  1  0
  8  9  2  0
  9 10  1  0
 10 11  1  0
 11 12  1  0
 12 13  2  0
 13 14  1  0
 14 15  1  0
 15 16  1  0
 16 17  2  0
 17 18  1  0
 18 19  2  0
 19 20  1  0
 20 21  1  0
 21 22  1  0
 22 23  1  0
 23 24  1  0
 24 25  1  0
 24 26  2  0
 23 27  1  0
 27 28  1  0
 28 20  1  0
 19 29  1  0
 29 30  2  0
 30 16  1  0
 30 31  1  0
 31 32  1  0
 14 33  2  0
 33 34  1  0
 34 35  2  0
 35 12  1  0
 35 36  1  0
 36 37  1  0
 36 38  1  0
 36 39  1  0
 10 40  2  0
 40  6  1  0
M  END
> <Name>
CHEMBL3699588

> <pChEMBL_Value>
8.26

$$$$
CHEMBL3699581
  SciTegic08122012322D

 37 40  0  0  0  0            999 V2000
    3.8912   -5.2570    0.0000 C   0  0
    3.8933   -3.7570    0.0000 C   0  0
    2.5951   -3.0039    0.0000 C   0  0
    1.2948   -3.7516    0.0000 O   0  0
    2.5973   -1.5031    0.0000 N   0  0
    1.2990   -0.7500    0.0000 C   0  0
    1.2990    0.7500    0.0000 C   0  0
    0.0000    1.5000    0.0000 C   0  0
   -1.2990    0.7500    0.0000 C   0  0
   -1.2990   -0.7500    0.0000 C   0  0
   -2.5972   -1.5031    0.0000 O   0  0
   -2.5951   -3.0039    0.0000 C   0  0
   -1.2935   -3.7495    0.0000 N   0  0
   -1.2883   -5.2495    0.0000 C   0  0
    0.0125   -5.9981    0.0000 N   0  0
    0.0156   -7.4989    0.0000 C   0  0
   -1.2835   -8.2490    0.0000 C   0  0
   -1.2835   -9.7490    0.0000 C   0  0
    0.0156  -10.4990    0.0000 C   0  0
    0.0156  -11.9998    0.0000 N   0  0
   -1.2823  -12.7520    0.0000 C   0  0
   -1.2799  -14.2520    0.0000 C   0  0
    0.0203  -14.9999    0.0000 O   0  0
    1.3182  -14.2478    0.0000 C   0  0
    1.3158  -12.7478    0.0000 C   0  0
    1.3146   -9.7490    0.0000 C   0  0
    1.3146   -8.2490    0.0000 C   0  0
    2.6159   -7.5013    0.0000 O   0  0
    3.9139   -8.2532    0.0000 C   0  0
   -2.5847   -6.0040    0.0000 N   0  0
   -3.8863   -5.2585    0.0000 C   0  0
   -3.8915   -3.7585    0.0000 C   0  0
   -5.1939   -3.0126    0.0000 C   0  0
   -6.4908   -3.7663    0.0000 F   0  0
   -5.1987   -1.5126    0.0000 F   0  0
   -6.4952   -2.2666    0.0000 F   0  0
    0.0000   -1.5000    0.0000 C   0  0
  1  2  2  0
  2  3  1  0
  3  4  2  0
  3  5  1  0
  5  6  1  0
  6  7  2  0
  7  8  1  0
  8  9  2  0
  9 10  1  0
 10 11  1  0
 11 12  1  0
 12 13  2  0
 13 14  1  0
 14 15  1  0
 15 16  1  0
 16 17  2  0
 17 18  1  0
 18 19  2  0
 19 20  1  0
 20 21  1  0
 21 22  1  0
 22 23  1  0
 23 24  1  0
 24 25  1  0
 25 20  1  0
 19 26  1  0
 26 27  2  0
 27 16  1  0
 27 28  1  0
 28 29  1  0
 14 30  2  0
 30 31  1  0
 31 32  2  0
 32 12  1  0
 32 33  1  0
 33 34  1  0
 33 35  1  0
 33 36  1  0
 10 37  2  0
 37  6  1  0
M  END
> <Name>
CHEMBL3699581

> <pChEMBL_Value>
8.26

$$$$
CHEMBL3699587
  SciTegic08122012322D

 37 40  0  0  0  0            999 V2000
    3.8912   -5.2570    0.0000 C   0  0
    3.8933   -3.7570    0.0000 C   0  0
    2.5951   -3.0039    0.0000 C   0  0
    1.2948   -3.7516    0.0000 O   0  0
    2.5973   -1.5031    0.0000 N   0  0
    1.2990   -0.7500    0.0000 C   0  0
    1.2990    0.7500    0.0000 C   0  0
    0.0000    1.5000    0.0000 C   0  0
   -1.2990    0.7500    0.0000 C   0  0
   -1.2990   -0.7500    0.0000 C   0  0
   -2.5972   -1.5031    0.0000 O   0  0
   -2.5951   -3.0039    0.0000 C   0  0
   -1.2935   -3.7495    0.0000 N   0  0
   -1.2883   -5.2495    0.0000 C   0  0
    0.0125   -5.9981    0.0000 N   0  0
    0.0156   -7.4989    0.0000 C   0  0
   -1.2835   -8.2490    0.0000 C   0  0
   -1.2835   -9.7490    0.0000 C   0  0
    0.0156  -10.4990    0.0000 C   0  0
    0.0156  -11.9998    0.0000 N   0  0
   -1.2823  -12.7520    0.0000 C   0  0
   -1.2799  -14.2520    0.0000 C   0  0
    0.0203  -14.9999    0.0000 N   0  0
    0.0258  -16.5007    0.0000 C   0  0
   -1.2707  -17.2550    0.0000 C   0  0
    1.3271  -17.2468    0.0000 O   0  0
    1.3182  -14.2478    0.0000 C   0  0
    1.3158  -12.7478    0.0000 C   0  0
    1.3146   -9.7490    0.0000 C   0  0
    1.3146   -8.2490    0.0000 C   0  0
    2.6159   -7.5013    0.0000 O   0  0
    3.9139   -8.2532    0.0000 C   0  0
   -2.5847   -6.0040    0.0000 N   0  0
   -3.8863   -5.2585    0.0000 C   0  0
   -3.8915   -3.7585    0.0000 C   0  0
   -5.1932   -3.0130    0.0000 Cl  0  0
    0.0000   -1.5000    0.0000 C   0  0
  1  2  2  0
  2  3  1  0
  3  4  2  0
  3  5  1  0
  5  6  1  0
  6  7  2  0
  7  8  1  0
  8  9  2  0
  9 10  1  0
 10 11  1  0
 11 12  1  0
 12 13  2  0
 13 14  1  0
 14 15  1  0
 15 16  1  0
 16 17  2  0
 17 18  1  0
 18 19  2  0
 19 20  1  0
 20 21  1  0
 21 22  1  0
 22 23  1  0
 23 24  1  0
 24 25  1  0
 24 26  2  0
 23 27  1  0
 27 28  1  0
 28 20  1  0
 19 29  1  0
 29 30  2  0
 30 16  1  0
 30 31  1  0
 31 32  1  0
 14 33  2  0
 33 34  1  0
 34 35  2  0
 35 12  1  0
 35 36  1  0
 10 37  2  0
 37  6  1  0
M  END
> <Name>
CHEMBL3699587

> <pChEMBL_Value>
8.26

$$$$
CHEMBL3894076
  SciTegic08122012322D

 30 32  0  0  0  0            999 V2000
    3.8912   -5.2570    0.0000 C   0  0
    3.8933   -3.7570    0.0000 C   0  0
    2.5951   -3.0039    0.0000 C   0  0
    1.2948   -3.7516    0.0000 O   0  0
    2.5973   -1.5031    0.0000 N   0  0
    1.2990   -0.7500    0.0000 C   0  0
    1.2990    0.7500    0.0000 C   0  0
    0.0000    1.5000    0.0000 C   0  0
   -1.2990    0.7500    0.0000 C   0  0
   -1.2990   -0.7500    0.0000 C   0  0
   -2.5972   -1.5031    0.0000 O   0  0
   -2.5951   -3.0039    0.0000 C   0  0
   -1.2935   -3.7495    0.0000 N   0  0
   -1.2883   -5.2495    0.0000 C   0  0
    0.0125   -5.9981    0.0000 N   0  0
    0.0156   -7.4989    0.0000 C   0  0
   -1.2835   -8.2490    0.0000 C   0  0
   -1.2835   -9.7490    0.0000 C   0  0
    0.0156  -10.4990    0.0000 C   0  0
    1.3146   -9.7490    0.0000 C   0  0
    2.6128  -10.5021    0.0000 O   0  0
    2.6107  -12.0021    0.0000 C   0  0
    1.3146   -8.2490    0.0000 C   0  0
    2.6128   -7.4960    0.0000 O   0  0
    2.6108   -5.9960    0.0000 C   0  0
   -2.5847   -6.0040    0.0000 N   0  0
   -3.8863   -5.2585    0.0000 C   0  0
   -3.8915   -3.7585    0.0000 C   0  0
   -5.1932   -3.0130    0.0000 Br  0  0
    0.0000   -1.5000    0.0000 C   0  0
  1  2  2  0
  2  3  1  0
  3  4  2  0
  3  5  1  0
  5  6  1  0
  6  7  2  0
  7  8  1  0
  8  9  2  0
  9 10  1  0
 10 11  1  0
 11 12  1  0
 12 13  2  0
 13 14  1  0
 14 15  1  0
 15 16  1  0
 16 17  2  0
 17 18  1  0
 18 19  2  0
 19 20  1  0
 20 21  1  0
 21 22  1  0
 20 23  2  0
 23 16  1  0
 23 24  1  0
 24 25  1  0
 14 26  2  0
 26 27  1  0
 27 28  2  0
 28 12  1  0
 28 29  1  0
 10 30  2  0
 30  6  1  0
M  END
> <Name>
CHEMBL3894076

> <pChEMBL_Value>
8.26

$$$$
CHEMBL3699617
  SciTegic08122012322D

 42 45  0  0  0  0            999 V2000
    7.6472   -5.4375    0.0000 C   0  0
    9.1243   -5.6982    0.0000 C   0  0
   10.0899   -4.5492    0.0000 C   0  0
    9.5775   -3.1394    0.0000 O   0  0
   11.5679   -4.8100    0.0000 N   0  0
   12.5335   -3.6610    0.0000 C   0  0
   14.0111   -3.9196    0.0000 C   0  0
   14.9737   -2.7693    0.0000 C   0  0
   14.4589   -1.3604    0.0000 C   0  0
   12.9813   -1.1018    0.0000 C   0  0
   12.4633    0.3068    0.0000 O   0  0
   10.9846    0.5635    0.0000 C   0  0
   10.0259   -0.5902    0.0000 N   0  0
    8.5474   -0.3368    0.0000 C   0  0
    7.5858   -1.4891    0.0000 N   0  0
    6.1069   -1.2335    0.0000 C   0  0
    5.5920    0.1754    0.0000 C   0  0
    4.1145    0.4339    0.0000 C   0  0
    3.1484   -0.7186    0.0000 C   0  0
    1.6852   -0.3846    0.0000 N   0  0
    1.3514    1.0778    0.0000 C   0  0
    0.0000    1.7286    0.0000 C   0  0
   -1.3515    1.0777    0.0000 C   0  0
   -1.6852   -0.3847    0.0000 N   0  0
   -3.1497   -0.7220    0.0000 C   0  0
   -4.1718    0.3758    0.0000 O   0  0
   -3.5900   -2.1568    0.0000 O   0  0
   -5.0525   -2.4938    0.0000 C   0  0
   -5.4926   -3.9278    0.0000 C   0  0
   -6.5144   -2.8299    0.0000 C   0  0
   -6.0747   -1.3960    0.0000 C   0  0
   -0.7500   -1.5574    0.0000 C   0  0
    0.7500   -1.5574    0.0000 C   0  0
    3.6667   -2.1252    0.0000 C   0  0
    5.1442   -2.3838    0.0000 C   0  0
    5.6565   -3.7945    0.0000 O   0  0
    4.6921   -4.9435    0.0000 C   0  0
    8.0277    1.0704    0.0000 N   0  0
    8.9864    2.2240    0.0000 C   0  0
   10.4648    1.9705    0.0000 C   0  0
   11.4235    3.1242    0.0000 Cl  0  0
   12.0186   -2.2522    0.0000 C   0  0
  1  2  2  0
  2  3  1  0
  3  4  2  0
  3  5  1  0
  5  6  1  0
  6  7  2  0
  7  8  1  0
  8  9  2  0
  9 10  1  0
 10 11  1  0
 11 12  1  0
 12 13  2  0
 13 14  1  0
 14 15  1  0
 15 16  1  0
 16 17  2  0
 17 18  1  0
 18 19  2  0
 19 20  1  0
 20 21  1  0
 21 22  1  0
 22 23  1  0
 23 24  1  0
 24 25  1  0
 25 26  2  0
 25 27  1  0
 27 28  1  0
 28 29  1  0
 28 30  1  0
 28 31  1  0
 24 32  1  0
 32 33  1  0
 33 20  1  0
 19 34  1  0
 34 35  2  0
 35 16  1  0
 35 36  1  0
 36 37  1  0
 14 38  2  0
 38 39  1  0
 39 40  2  0
 40 12  1  0
 40 41  1  0
 10 42  2  0
 42  6  1  0
M  END
> <Name>
CHEMBL3699617

> <pChEMBL_Value>
8.26

$$$$
CHEMBL3699583
  SciTegic08122012322D

 38 41  0  0  0  0            999 V2000
    3.8912   -5.2570    0.0000 C   0  0
    3.8933   -3.7570    0.0000 C   0  0
    2.5951   -3.0039    0.0000 C   0  0
    1.2948   -3.7516    0.0000 O   0  0
    2.5973   -1.5031    0.0000 N   0  0
    1.2990   -0.7500    0.0000 C   0  0
    1.2990    0.7500    0.0000 C   0  0
    0.0000    1.5000    0.0000 C   0  0
   -1.2990    0.7500    0.0000 C   0  0
   -1.2990   -0.7500    0.0000 C   0  0
   -2.5972   -1.5031    0.0000 O   0  0
   -2.5951   -3.0039    0.0000 C   0  0
   -1.2935   -3.7495    0.0000 N   0  0
   -1.2883   -5.2495    0.0000 C   0  0
    0.0125   -5.9981    0.0000 N   0  0
    0.0156   -7.4989    0.0000 C   0  0
   -1.2835   -8.2490    0.0000 C   0  0
   -1.2835   -9.7490    0.0000 C   0  0
    0.0156  -10.4990    0.0000 C   0  0
    0.0156  -11.9998    0.0000 N   0  0
   -1.2823  -12.7520    0.0000 C   0  0
   -1.2799  -14.2520    0.0000 C   0  0
    0.0203  -14.9999    0.0000 N   0  0
    0.0258  -16.5007    0.0000 C   0  0
   -1.2707  -17.2550    0.0000 O   0  0
    1.3278  -17.2472    0.0000 C   0  0
    1.3333  -18.7472    0.0000 O   0  0
    1.3182  -14.2478    0.0000 C   0  0
    1.3158  -12.7478    0.0000 C   0  0
    1.3146   -9.7490    0.0000 C   0  0
    1.3146   -8.2490    0.0000 C   0  0
    2.6159   -7.5013    0.0000 O   0  0
    3.9139   -8.2532    0.0000 C   0  0
   -2.5847   -6.0040    0.0000 N   0  0
   -3.8863   -5.2585    0.0000 C   0  0
   -3.8915   -3.7585    0.0000 C   0  0
   -5.1932   -3.0130    0.0000 Cl  0  0
    0.0000   -1.5000    0.0000 C   0  0
  1  2  2  0
  2  3  1  0
  3  4  2  0
  3  5  1  0
  5  6  1  0
  6  7  2  0
  7  8  1  0
  8  9  2  0
  9 10  1  0
 10 11  1  0
 11 12  1  0
 12 13  2  0
 13 14  1  0
 14 15  1  0
 15 16  1  0
 16 17  2  0
 17 18  1  0
 18 19  2  0
 19 20  1  0
 20 21  1  0
 21 22  1  0
 22 23  1  0
 23 24  1  0
 24 25  2  0
 24 26  1  0
 26 27  1  0
 23 28  1  0
 28 29  1  0
 29 20  1  0
 19 30  1  0
 30 31  2  0
 31 16  1  0
 31 32  1  0
 32 33  1  0
 14 34  2  0
 34 35  1  0
 35 36  2  0
 36 12  1  0
 36 37  1  0
 10 38  2  0
 38  6  1  0
M  END
> <Name>
CHEMBL3699583

> <pChEMBL_Value>
8.26

$$$$
CHEMBL3699602
  SciTegic08122012322D

 41 44  0  0  0  0            999 V2000
    3.8912   -5.2570    0.0000 C   0  0
    3.8933   -3.7570    0.0000 C   0  0
    2.5951   -3.0039    0.0000 C   0  0
    1.2948   -3.7516    0.0000 O   0  0
    2.5973   -1.5031    0.0000 N   0  0
    1.2990   -0.7500    0.0000 C   0  0
    1.2990    0.7500    0.0000 C   0  0
    0.0000    1.5000    0.0000 C   0  0
   -1.2990    0.7500    0.0000 C   0  0
   -1.2990   -0.7500    0.0000 C   0  0
   -2.5972   -1.5031    0.0000 O   0  0
   -2.5951   -3.0039    0.0000 C   0  0
   -1.2935   -3.7495    0.0000 N   0  0
   -1.2883   -5.2495    0.0000 C   0  0
    0.0125   -5.9981    0.0000 N   0  0
    0.0156   -7.4989    0.0000 C   0  0
   -1.2835   -8.2490    0.0000 C   0  0
   -1.2835   -9.7490    0.0000 C   0  0
    0.0156  -10.4990    0.0000 C   0  0
    0.0156  -11.9998    0.0000 N   0  0
   -1.2823  -12.7520    0.0000 C   0  0
   -1.2799  -14.2520    0.0000 C   0  0
    0.0203  -14.9999    0.0000 N   0  0
    0.0227  -16.5007    0.0000 S   0  0
    1.3232  -17.2482    0.0000 N   0  0
   -1.2746  -17.2536    0.0000 O   0  0
    0.0258  -18.0007    0.0000 O   0  0
    1.3182  -14.2478    0.0000 C   0  0
    1.3158  -12.7478    0.0000 C   0  0
    1.3146   -9.7490    0.0000 C   0  0
    1.3146   -8.2490    0.0000 C   0  0
    2.6159   -7.5013    0.0000 O   0  0
    3.9139   -8.2532    0.0000 C   0  0
   -2.5847   -6.0040    0.0000 N   0  0
   -3.8863   -5.2585    0.0000 C   0  0
   -3.8915   -3.7585    0.0000 C   0  0
   -5.1939   -3.0126    0.0000 C   0  0
   -6.4908   -3.7663    0.0000 F   0  0
   -5.1987   -1.5126    0.0000 F   0  0
   -6.4952   -2.2666    0.0000 F   0  0
    0.0000   -1.5000    0.0000 C   0  0
  1  2  2  0
  2  3  1  0
  3  4  2  0
  3  5  1  0
  5  6  1  0
  6  7  2  0
  7  8  1  0
  8  9  2  0
  9 10  1  0
 10 11  1  0
 11 12  1  0
 12 13  2  0
 13 14  1  0
 14 15  1  0
 15 16  1  0
 16 17  2  0
 17 18  1  0
 18 19  2  0
 19 20  1  0
 20 21  1  0
 21 22  1  0
 22 23  1  0
 23 24  1  0
 24 25  1  0
 24 26  2  0
 24 27  2  0
 23 28  1  0
 28 29  1  0
 29 20  1  0
 19 30  1  0
 30 31  2  0
 31 16  1  0
 31 32  1  0
 32 33  1  0
 14 34  2  0
 34 35  1  0
 35 36  2  0
 36 12  1  0
 36 37  1  0
 37 38  1  0
 37 39  1  0
 37 40  1  0
 10 41  2  0
 41  6  1  0
M  END
> <Name>
CHEMBL3699602

> <pChEMBL_Value>
8.26

$$$$
CHEMBL3913778
  SciTegic08122012322D

 30 32  0  0  0  0            999 V2000
    3.8912   -5.2570    0.0000 C   0  0
    3.8933   -3.7570    0.0000 C   0  0
    2.5951   -3.0039    0.0000 C   0  0
    1.2948   -3.7516    0.0000 O   0  0
    2.5973   -1.5031    0.0000 N   0  0
    1.2990   -0.7500    0.0000 C   0  0
    1.2990    0.7500    0.0000 C   0  0
    0.0000    1.5000    0.0000 C   0  0
   -1.2990    0.7500    0.0000 C   0  0
   -1.2990   -0.7500    0.0000 C   0  0
   -2.5972   -1.5031    0.0000 O   0  0
   -2.5951   -3.0039    0.0000 C   0  0
   -1.2935   -3.7495    0.0000 N   0  0
   -1.2883   -5.2495    0.0000 C   0  0
    0.0125   -5.9981    0.0000 N   0  0
    0.0156   -7.4989    0.0000 C   0  0
   -1.2835   -8.2490    0.0000 C   0  0
   -1.2835   -9.7490    0.0000 C   0  0
    0.0156  -10.4990    0.0000 C   0  0
    0.0187  -11.9999    0.0000 O   0  0
    1.3188  -12.7480    0.0000 C   0  0
    1.3146   -9.7490    0.0000 C   0  0
    1.3146   -8.2490    0.0000 C   0  0
    2.6159   -7.5013    0.0000 O   0  0
    3.9139   -8.2532    0.0000 C   0  0
   -2.5847   -6.0040    0.0000 N   0  0
   -3.8863   -5.2585    0.0000 C   0  0
   -3.8915   -3.7585    0.0000 C   0  0
   -5.1932   -3.0130    0.0000 Cl  0  0
    0.0000   -1.5000    0.0000 C   0  0
  1  2  2  0
  2  3  1  0
  3  4  2  0
  3  5  1  0
  5  6  1  0
  6  7  2  0
  7  8  1  0
  8  9  2  0
  9 10  1  0
 10 11  1  0
 11 12  1  0
 12 13  2  0
 13 14  1  0
 14 15  1  0
 15 16  1  0
 16 17  2  0
 17 18  1  0
 18 19  2  0
 19 20  1  0
 20 21  1  0
 19 22  1  0
 22 23  2  0
 23 16  1  0
 23 24  1  0
 24 25  1  0
 14 26  2  0
 26 27  1  0
 27 28  2  0
 28 12  1  0
 28 29  1  0
 10 30  2  0
 30  6  1  0
M  END
> <Name>
CHEMBL3913778

> <pChEMBL_Value>
8.26

$$$$
CHEMBL3699600
  SciTegic08122012322D

 40 43  0  0  0  0            999 V2000
    3.8912   -5.2570    0.0000 C   0  0
    3.8933   -3.7570    0.0000 C   0  0
    2.5951   -3.0039    0.0000 C   0  0
    1.2948   -3.7516    0.0000 O   0  0
    2.5973   -1.5031    0.0000 N   0  0
    1.2990   -0.7500    0.0000 C   0  0
    1.2990    0.7500    0.0000 C   0  0
    0.0000    1.5000    0.0000 C   0  0
   -1.2990    0.7500    0.0000 C   0  0
   -1.2990   -0.7500    0.0000 C   0  0
   -2.5972   -1.5031    0.0000 O   0  0
   -2.5951   -3.0039    0.0000 C   0  0
   -1.2935   -3.7495    0.0000 N   0  0
   -1.2883   -5.2495    0.0000 C   0  0
    0.0125   -5.9981    0.0000 N   0  0
    0.0156   -7.4989    0.0000 C   0  0
   -1.2835   -8.2490    0.0000 C   0  0
   -1.2835   -9.7490    0.0000 C   0  0
    0.0156  -10.4990    0.0000 C   0  0
    0.0156  -11.9998    0.0000 N   0  0
   -1.2823  -12.7520    0.0000 C   0  0
   -1.2799  -14.2520    0.0000 C   0  0
    0.0203  -14.9999    0.0000 N   0  0
    0.0258  -16.5007    0.0000 C   0  0
   -1.2707  -17.2550    0.0000 O   0  0
    1.3278  -17.2472    0.0000 C   0  0
    1.3333  -18.7472    0.0000 F   0  0
    2.6295  -17.9927    0.0000 F   0  0
    2.6244  -16.4929    0.0000 F   0  0
    1.3182  -14.2478    0.0000 C   0  0
    1.3158  -12.7478    0.0000 C   0  0
    1.3146   -9.7490    0.0000 C   0  0
    1.3146   -8.2490    0.0000 C   0  0
    2.6159   -7.5013    0.0000 O   0  0
    3.9139   -8.2532    0.0000 C   0  0
   -2.5847   -6.0040    0.0000 N   0  0
   -3.8863   -5.2585    0.0000 C   0  0
   -3.8915   -3.7585    0.0000 C   0  0
   -5.1932   -3.0130    0.0000 Cl  0  0
    0.0000   -1.5000    0.0000 C   0  0
  1  2  2  0
  2  3  1  0
  3  4  2  0
  3  5  1  0
  5  6  1  0
  6  7  2  0
  7  8  1  0
  8  9  2  0
  9 10  1  0
 10 11  1  0
 11 12  1  0
 12 13  2  0
 13 14  1  0
 14 15  1  0
 15 16  1  0
 16 17  2  0
 17 18  1  0
 18 19  2  0
 19 20  1  0
 20 21  1  0
 21 22  1  0
 22 23  1  0
 23 24  1  0
 24 25  2  0
 24 26  1  0
 26 27  1  0
 26 28  1  0
 26 29  1  0
 23 30  1  0
 30 31  1  0
 31 20  1  0
 19 32  1  0
 32 33  2  0
 33 16  1  0
 33 34  1  0
 34 35  1  0
 14 36  2  0
 36 37  1  0
 37 38  2  0
 38 12  1  0
 38 39  1  0
 10 40  2  0
 40  6  1  0
M  END
> <Name>
CHEMBL3699600

> <pChEMBL_Value>
8.26

$$$$
CHEMBL3978161
  SciTegic08122012322D

 31 33  0  0  0  0            999 V2000
    3.8912   -5.2570    0.0000 C   0  0
    3.8933   -3.7570    0.0000 C   0  0
    2.5951   -3.0039    0.0000 C   0  0
    1.2948   -3.7516    0.0000 O   0  0
    2.5973   -1.5031    0.0000 N   0  0
    1.2990   -0.7500    0.0000 C   0  0
    1.2990    0.7500    0.0000 C   0  0
    0.0000    1.5000    0.0000 C   0  0
   -1.2990    0.7500    0.0000 C   0  0
   -1.2990   -0.7500    0.0000 C   0  0
   -2.5972   -1.5031    0.0000 O   0  0
   -2.5951   -3.0039    0.0000 C   0  0
   -1.2935   -3.7495    0.0000 N   0  0
   -1.2883   -5.2495    0.0000 C   0  0
    0.0125   -5.9981    0.0000 N   0  0
    0.0156   -7.4989    0.0000 C   0  0
   -1.2835   -8.2490    0.0000 C   0  0
   -1.2835   -9.7490    0.0000 C   0  0
    0.0156  -10.4990    0.0000 C   0  0
    1.3146   -9.7490    0.0000 C   0  0
    1.3146   -8.2490    0.0000 C   0  0
    2.6159   -7.5013    0.0000 O   0  0
    3.9139   -8.2532    0.0000 C   0  0
   -2.5847   -6.0040    0.0000 N   0  0
   -3.8863   -5.2585    0.0000 C   0  0
   -3.8915   -3.7585    0.0000 C   0  0
   -5.1939   -3.0126    0.0000 C   0  0
   -6.4908   -3.7663    0.0000 F   0  0
   -5.1987   -1.5126    0.0000 F   0  0
   -6.4952   -2.2666    0.0000 F   0  0
    0.0000   -1.5000    0.0000 C   0  0
  1  2  2  0
  2  3  1  0
  3  4  2  0
  3  5  1  0
  5  6  1  0
  6  7  2  0
  7  8  1  0
  8  9  2  0
  9 10  1  0
 10 11  1  0
 11 12  1  0
 12 13  2  0
 13 14  1  0
 14 15  1  0
 15 16  1  0
 16 17  2  0
 17 18  1  0
 18 19  2  0
 19 20  1  0
 20 21  2  0
 21 16  1  0
 21 22  1  0
 22 23  1  0
 14 24  2  0
 24 25  1  0
 25 26  2  0
 26 12  1  0
 26 27  1  0
 27 28  1  0
 27 29  1  0
 27 30  1  0
 10 31  2  0
 31  6  1  0
M  END
> <Name>
CHEMBL3978161

> <pChEMBL_Value>
8.26

$$$$
CHEMBL3947802
  SciTegic08122012322D

 33 35  0  0  0  0            999 V2000
    3.8912   -5.2570    0.0000 C   0  0
    3.8933   -3.7570    0.0000 C   0  0
    2.5951   -3.0039    0.0000 C   0  0
    1.2948   -3.7516    0.0000 O   0  0
    2.5973   -1.5031    0.0000 N   0  0
    1.2990   -0.7500    0.0000 C   0  0
    1.2990    0.7500    0.0000 C   0  0
    0.0000    1.5000    0.0000 C   0  0
   -1.2990    0.7500    0.0000 C   0  0
   -1.2990   -0.7500    0.0000 C   0  0
   -2.5972   -1.5031    0.0000 O   0  0
   -2.5951   -3.0039    0.0000 C   0  0
   -1.2935   -3.7495    0.0000 N   0  0
   -1.2883   -5.2495    0.0000 C   0  0
    0.0125   -5.9981    0.0000 N   0  0
    0.0156   -7.4989    0.0000 C   0  0
   -1.2835   -8.2490    0.0000 C   0  0
   -1.2835   -9.7490    0.0000 C   0  0
    0.0156  -10.4990    0.0000 C   0  0
    0.0187  -11.9999    0.0000 O   0  0
    1.3188  -12.7480    0.0000 C   0  0
    1.3146   -9.7490    0.0000 C   0  0
    1.3146   -8.2490    0.0000 C   0  0
    2.6159   -7.5013    0.0000 O   0  0
    3.9139   -8.2532    0.0000 C   0  0
   -2.5847   -6.0040    0.0000 N   0  0
   -3.8863   -5.2585    0.0000 C   0  0
   -3.8915   -3.7585    0.0000 C   0  0
   -5.1939   -3.0126    0.0000 C   0  0
   -6.4908   -3.7663    0.0000 F   0  0
   -5.1987   -1.5126    0.0000 F   0  0
   -6.4952   -2.2666    0.0000 F   0  0
    0.0000   -1.5000    0.0000 C   0  0
  1  2  2  0
  2  3  1  0
  3  4  2  0
  3  5  1  0
  5  6  1  0
  6  7  2  0
  7  8  1  0
  8  9  2  0
  9 10  1  0
 10 11  1  0
 11 12  1  0
 12 13  2  0
 13 14  1  0
 14 15  1  0
 15 16  1  0
 16 17  2  0
 17 18  1  0
 18 19  2  0
 19 20  1  0
 20 21  1  0
 19 22  1  0
 22 23  2  0
 23 16  1  0
 23 24  1  0
 24 25  1  0
 14 26  2  0
 26 27  1  0
 27 28  2  0
 28 12  1  0
 28 29  1  0
 29 30  1  0
 29 31  1  0
 29 32  1  0
 10 33  2  0
 33  6  1  0
M  END
> <Name>
CHEMBL3947802

> <pChEMBL_Value>
8.26

$$$$
CHEMBL3699599
  SciTegic08122012322D

 41 44  0  0  0  0            999 V2000
    3.8912   -5.2570    0.0000 C   0  0
    3.8933   -3.7570    0.0000 C   0  0
    2.5951   -3.0039    0.0000 C   0  0
    1.2948   -3.7516    0.0000 O   0  0
    2.5973   -1.5031    0.0000 N   0  0
    1.2990   -0.7500    0.0000 C   0  0
    1.2990    0.7500    0.0000 C   0  0
    0.0000    1.5000    0.0000 C   0  0
   -1.2990    0.7500    0.0000 C   0  0
   -1.2990   -0.7500    0.0000 C   0  0
   -2.5972   -1.5031    0.0000 O   0  0
   -2.5951   -3.0039    0.0000 C   0  0
   -1.2935   -3.7495    0.0000 N   0  0
   -1.2883   -5.2495    0.0000 C   0  0
    0.0125   -5.9981    0.0000 N   0  0
    0.0156   -7.4989    0.0000 C   0  0
   -1.2835   -8.2490    0.0000 C   0  0
   -1.2835   -9.7490    0.0000 C   0  0
    0.0156  -10.4990    0.0000 C   0  0
    0.0156  -11.9998    0.0000 N   0  0
   -1.2823  -12.7520    0.0000 C   0  0
   -1.2799  -14.2520    0.0000 C   0  0
    0.0203  -14.9999    0.0000 N   0  0
    0.0258  -16.5007    0.0000 C   0  0
   -1.2707  -17.2550    0.0000 O   0  0
    1.3278  -17.2472    0.0000 C   0  0
    1.3333  -18.7480    0.0000 C   0  0
    2.6346  -19.4941    0.0000 C   0  0
    1.3381  -20.2480    0.0000 C   0  0
    0.0368  -19.5023    0.0000 C   0  0
    1.3182  -14.2478    0.0000 C   0  0
    1.3158  -12.7478    0.0000 C   0  0
    1.3146   -9.7490    0.0000 C   0  0
    1.3146   -8.2490    0.0000 C   0  0
    2.6159   -7.5013    0.0000 O   0  0
    3.9139   -8.2532    0.0000 C   0  0
   -2.5847   -6.0040    0.0000 N   0  0
   -3.8863   -5.2585    0.0000 C   0  0
   -3.8915   -3.7585    0.0000 C   0  0
   -5.1932   -3.0130    0.0000 Cl  0  0
    0.0000   -1.5000    0.0000 C   0  0
  1  2  2  0
  2  3  1  0
  3  4  2  0
  3  5  1  0
  5  6  1  0
  6  7  2  0
  7  8  1  0
  8  9  2  0
  9 10  1  0
 10 11  1  0
 11 12  1  0
 12 13  2  0
 13 14  1  0
 14 15  1  0
 15 16  1  0
 16 17  2  0
 17 18  1  0
 18 19  2  0
 19 20  1  0
 20 21  1  0
 21 22  1  0
 22 23  1  0
 23 24  1  0
 24 25  2  0
 24 26  1  0
 26 27  1  0
 27 28  1  0
 27 29  1  0
 27 30  1  0
 23 31  1  0
 31 32  1  0
 32 20  1  0
 19 33  1  0
 33 34  2  0
 34 16  1  0
 34 35  1  0
 35 36  1  0
 14 37  2  0
 37 38  1  0
 38 39  2  0
 39 12  1  0
 39 40  1  0
 10 41  2  0
 41  6  1  0
M  END
> <Name>
CHEMBL3699599

> <pChEMBL_Value>
8.26

$$$$
CHEMBL3904778
  SciTegic08122012322D

 30 32  0  0  0  0            999 V2000
    3.8912   -5.2570    0.0000 C   0  0
    3.8933   -3.7570    0.0000 C   0  0
    2.5951   -3.0039    0.0000 C   0  0
    1.2948   -3.7516    0.0000 O   0  0
    2.5973   -1.5031    0.0000 N   0  0
    1.2990   -0.7500    0.0000 C   0  0
    1.2990    0.7500    0.0000 C   0  0
    0.0000    1.5000    0.0000 C   0  0
   -1.2990    0.7500    0.0000 C   0  0
   -1.2990   -0.7500    0.0000 C   0  0
   -2.5972   -1.5031    0.0000 O   0  0
   -2.5951   -3.0039    0.0000 C   0  0
   -1.2935   -3.7495    0.0000 N   0  0
   -1.2883   -5.2495    0.0000 C   0  0
    0.0125   -5.9981    0.0000 N   0  0
    0.0156   -7.4989    0.0000 C   0  0
   -1.2835   -8.2490    0.0000 C   0  0
   -1.2835   -9.7490    0.0000 C   0  0
    0.0156  -10.4990    0.0000 C   0  0
    0.0187  -11.9999    0.0000 O   0  0
    1.3188  -12.7480    0.0000 C   0  0
    1.3146   -9.7490    0.0000 C   0  0
    1.3146   -8.2490    0.0000 C   0  0
    2.6159   -7.5013    0.0000 O   0  0
    3.9139   -8.2532    0.0000 C   0  0
   -2.5847   -6.0040    0.0000 N   0  0
   -3.8863   -5.2585    0.0000 C   0  0
   -3.8915   -3.7585    0.0000 C   0  0
   -5.1932   -3.0130    0.0000 Br  0  0
    0.0000   -1.5000    0.0000 C   0  0
  1  2  2  0
  2  3  1  0
  3  4  2  0
  3  5  1  0
  5  6  1  0
  6  7  2  0
  7  8  1  0
  8  9  2  0
  9 10  1  0
 10 11  1  0
 11 12  1  0
 12 13  2  0
 13 14  1  0
 14 15  1  0
 15 16  1  0
 16 17  2  0
 17 18  1  0
 18 19  2  0
 19 20  1  0
 20 21  1  0
 19 22  1  0
 22 23  2  0
 23 16  1  0
 23 24  1  0
 24 25  1  0
 14 26  2  0
 26 27  1  0
 27 28  2  0
 28 12  1  0
 28 29  1  0
 10 30  2  0
 30  6  1  0
M  END
> <Name>
CHEMBL3904778

> <pChEMBL_Value>
8.26

$$$$
CHEMBL3786343
  SciTegic08122012322D

 35 39  0  0  0  0            999 V2000
    2.5677    5.9984    0.0000 C   0  0
    3.8704    5.2547    0.0000 C   0  0
    3.8787    3.7539    0.0000 C   0  0
    2.5835    2.9972    0.0000 O   0  0
    5.1821    3.0099    0.0000 N   0  0
    5.1903    1.5091    0.0000 C   0  0
    6.4920    0.7636    0.0000 C   0  0
    6.4972   -0.7364    0.0000 C   0  0
    5.2007   -1.4909    0.0000 C   0  0
    3.8990   -0.7455    0.0000 C   0  0
    2.6003   -1.4977    0.0000 O   0  0
    1.2990   -0.7500    0.0000 C   0  0
    1.2990    0.7500    0.0000 N   0  0
    0.0000    1.5000    0.0000 C   0  0
   -0.0031    3.0008    0.0000 N   0  0
   -1.3039    3.7494    0.0000 C   0  0
   -1.3092    5.2494    0.0000 C   0  0
   -2.6108    5.9949    0.0000 C   0  0
   -3.9073    5.2404    0.0000 C   0  0
   -5.2096    5.9863    0.0000 N   0  0
   -5.2172    7.4863    0.0000 C   0  0
   -6.5200    8.2297    0.0000 C   0  0
   -7.8153    7.4732    0.0000 N   0  0
   -9.1181    8.2166    0.0000 C   0  0
   -7.8077    5.9732    0.0000 C   0  0
   -6.5049    5.2298    0.0000 C   0  0
   -3.9021    3.7404    0.0000 C   0  0
   -2.6005    2.9949    0.0000 C   0  0
   -1.2990    0.7500    0.0000 N   0  0
   -1.2990   -0.7500    0.0000 C   0  0
   -2.4133   -1.7530    0.0000 C   0  0
   -1.8032   -3.1233    0.0000 C   0  0
   -0.3114   -2.9665    0.0000 S   0  0
    0.0000   -1.5000    0.0000 C   0  0
    3.8939    0.7546    0.0000 C   0  0
  1  2  2  0
  2  3  1  0
  3  4  2  0
  3  5  1  0
  5  6  1  0
  6  7  2  0
  7  8  1  0
  8  9  2  0
  9 10  1  0
 10 11  1  0
 11 12  1  0
 12 13  2  0
 13 14  1  0
 14 15  1  0
 15 16  1  0
 16 17  2  0
 17 18  1  0
 18 19  2  0
 19 20  1  0
 20 21  1  0
 21 22  1  0
 22 23  1  0
 23 24  1  0
 23 25  1  0
 25 26  1  0
 26 20  1  0
 19 27  1  0
 27 28  2  0
 28 16  1  0
 14 29  2  0
 29 30  1  0
 30 31  1  0
 31 32  2  0
 32 33  1  0
 33 34  1  0
 34 12  1  0
 34 30  2  0
 10 35  2  0
 35  6  1  0
M  END
> <Name>
CHEMBL3786343

> <pChEMBL_Value>
7.75

$$$$
CHEMBL3930810
  SciTegic08122012322D

 33 35  0  0  0  0            999 V2000
    3.8912   -5.2570    0.0000 C   0  0
    3.8933   -3.7570    0.0000 C   0  0
    2.5951   -3.0039    0.0000 C   0  0
    1.2948   -3.7516    0.0000 O   0  0
    2.5973   -1.5031    0.0000 N   0  0
    1.2990   -0.7500    0.0000 C   0  0
    1.2990    0.7500    0.0000 C   0  0
    0.0000    1.5000    0.0000 C   0  0
   -1.2990    0.7500    0.0000 C   0  0
   -1.2990   -0.7500    0.0000 C   0  0
   -2.5972   -1.5031    0.0000 O   0  0
   -2.5951   -3.0039    0.0000 C   0  0
   -1.2935   -3.7495    0.0000 N   0  0
   -1.2883   -5.2495    0.0000 C   0  0
    0.0125   -5.9981    0.0000 N   0  0
    0.0156   -7.4989    0.0000 C   0  0
   -1.2835   -8.2490    0.0000 C   0  0
   -1.2835   -9.7490    0.0000 C   0  0
    0.0156  -10.4990    0.0000 C   0  0
    1.3146   -9.7490    0.0000 C   0  0
    2.6128  -10.5021    0.0000 O   0  0
    2.6107  -12.0021    0.0000 C   0  0
    1.3146   -8.2490    0.0000 C   0  0
    2.6128   -7.4960    0.0000 O   0  0
    2.6108   -5.9960    0.0000 C   0  0
   -2.5847   -6.0040    0.0000 N   0  0
   -3.8863   -5.2585    0.0000 C   0  0
   -3.8915   -3.7585    0.0000 C   0  0
   -5.1939   -3.0126    0.0000 C   0  0
   -6.4908   -3.7663    0.0000 F   0  0
   -5.1987   -1.5126    0.0000 F   0  0
   -6.4952   -2.2666    0.0000 F   0  0
    0.0000   -1.5000    0.0000 C   0  0
  1  2  2  0
  2  3  1  0
  3  4  2  0
  3  5  1  0
  5  6  1  0
  6  7  2  0
  7  8  1  0
  8  9  2  0
  9 10  1  0
 10 11  1  0
 11 12  1  0
 12 13  2  0
 13 14  1  0
 14 15  1  0
 15 16  1  0
 16 17  2  0
 17 18  1  0
 18 19  2  0
 19 20  1  0
 20 21  1  0
 21 22  1  0
 20 23  2  0
 23 16  1  0
 23 24  1  0
 24 25  1  0
 14 26  2  0
 26 27  1  0
 27 28  2  0
 28 12  1  0
 28 29  1  0
 29 30  1  0
 29 31  1  0
 29 32  1  0
 10 33  2  0
 33  6  1  0
M  END
> <Name>
CHEMBL3930810

> <pChEMBL_Value>
7.70

$$$$
CHEMBL3928176
  SciTegic08122012322D

 28 30  0  0  0  0            999 V2000
    3.8912   -5.2570    0.0000 C   0  0
    3.8933   -3.7570    0.0000 C   0  0
    2.5951   -3.0039    0.0000 C   0  0
    1.2948   -3.7516    0.0000 O   0  0
    2.5973   -1.5031    0.0000 N   0  0
    1.2990   -0.7500    0.0000 C   0  0
    1.2990    0.7500    0.0000 C   0  0
    0.0000    1.5000    0.0000 C   0  0
   -1.2990    0.7500    0.0000 C   0  0
   -1.2990   -0.7500    0.0000 C   0  0
   -2.5972   -1.5031    0.0000 O   0  0
   -2.5951   -3.0039    0.0000 C   0  0
   -1.2935   -3.7495    0.0000 N   0  0
   -1.2883   -5.2495    0.0000 C   0  0
    0.0125   -5.9981    0.0000 N   0  0
    0.0156   -7.4989    0.0000 C   0  0
   -1.2835   -8.2490    0.0000 C   0  0
   -1.2835   -9.7490    0.0000 C   0  0
    0.0156  -10.4990    0.0000 C   0  0
    1.3146   -9.7490    0.0000 C   0  0
    1.3146   -8.2490    0.0000 C   0  0
    2.6159   -7.5013    0.0000 O   0  0
    3.9139   -8.2532    0.0000 C   0  0
   -2.5847   -6.0040    0.0000 N   0  0
   -3.8863   -5.2585    0.0000 C   0  0
   -3.8915   -3.7585    0.0000 C   0  0
   -5.1932   -3.0130    0.0000 F   0  0
    0.0000   -1.5000    0.0000 C   0  0
  1  2  2  0
  2  3  1  0
  3  4  2  0
  3  5  1  0
  5  6  1  0
  6  7  2  0
  7  8  1  0
  8  9  2  0
  9 10  1  0
 10 11  1  0
 11 12  1  0
 12 13  2  0
 13 14  1  0
 14 15  1  0
 15 16  1  0
 16 17  2  0
 17 18  1  0
 18 19  2  0
 19 20  1  0
 20 21  2  0
 21 16  1  0
 21 22  1  0
 22 23  1  0
 14 24  2  0
 24 25  1  0
 25 26  2  0
 26 12  1  0
 26 27  1  0
 10 28  2  0
 28  6  1  0
M  END
> <Name>
CHEMBL3928176

> <pChEMBL_Value>
7.70

$$$$
CHEMBL3699601
  SciTegic08122012322D

 38 41  0  0  0  0            999 V2000
    3.8912   -5.2570    0.0000 C   0  0
    3.8933   -3.7570    0.0000 C   0  0
    2.5951   -3.0039    0.0000 C   0  0
    1.2948   -3.7516    0.0000 O   0  0
    2.5973   -1.5031    0.0000 N   0  0
    1.2990   -0.7500    0.0000 C   0  0
    1.2990    0.7500    0.0000 C   0  0
    0.0000    1.5000    0.0000 C   0  0
   -1.2990    0.7500    0.0000 C   0  0
   -1.2990   -0.7500    0.0000 C   0  0
   -2.5972   -1.5031    0.0000 O   0  0
   -2.5951   -3.0039    0.0000 C   0  0
   -1.2935   -3.7495    0.0000 N   0  0
   -1.2883   -5.2495    0.0000 C   0  0
    0.0125   -5.9981    0.0000 N   0  0
    0.0156   -7.4989    0.0000 C   0  0
   -1.2835   -8.2490    0.0000 C   0  0
   -1.2835   -9.7490    0.0000 C   0  0
    0.0156  -10.4990    0.0000 C   0  0
    0.0156  -11.9998    0.0000 N   0  0
   -1.2823  -12.7520    0.0000 C   0  0
   -1.2799  -14.2520    0.0000 C   0  0
    0.0203  -14.9999    0.0000 N   0  0
    0.0227  -16.5007    0.0000 S   0  0
    1.3232  -17.2482    0.0000 C   0  0
   -1.2746  -17.2536    0.0000 O   0  0
    0.0258  -18.0007    0.0000 O   0  0
    1.3182  -14.2478    0.0000 C   0  0
    1.3158  -12.7478    0.0000 C   0  0
    1.3146   -9.7490    0.0000 C   0  0
    1.3146   -8.2490    0.0000 C   0  0
    2.6159   -7.5013    0.0000 O   0  0
    3.9139   -8.2532    0.0000 C   0  0
   -2.5847   -6.0040    0.0000 N   0  0
   -3.8863   -5.2585    0.0000 C   0  0
   -3.8915   -3.7585    0.0000 C   0  0
   -5.1932   -3.0130    0.0000 Cl  0  0
    0.0000   -1.5000    0.0000 C   0  0
  1  2  2  0
  2  3  1  0
  3  4  2  0
  3  5  1  0
  5  6  1  0
  6  7  2  0
  7  8  1  0
  8  9  2  0
  9 10  1  0
 10 11  1  0
 11 12  1  0
 12 13  2  0
 13 14  1  0
 14 15  1  0
 15 16  1  0
 16 17  2  0
 17 18  1  0
 18 19  2  0
 19 20  1  0
 20 21  1  0
 21 22  1  0
 22 23  1  0
 23 24  1  0
 24 25  1  0
 24 26  2  0
 24 27  2  0
 23 28  1  0
 28 29  1  0
 29 20  1  0
 19 30  1  0
 30 31  2  0
 31 16  1  0
 31 32  1  0
 32 33  1  0
 14 34  2  0
 34 35  1  0
 35 36  2  0
 36 12  1  0
 36 37  1  0
 10 38  2  0
 38  6  1  0
M  END
> <Name>
CHEMBL3699601

> <pChEMBL_Value>
7.70

$$$$
CHEMBL3699594
  SciTegic08122012322D

 42 45  0  0  0  0            999 V2000
    3.8912   -5.2570    0.0000 C   0  0
    3.8933   -3.7570    0.0000 C   0  0
    2.5951   -3.0039    0.0000 C   0  0
    1.2948   -3.7516    0.0000 O   0  0
    2.5973   -1.5031    0.0000 N   0  0
    1.2990   -0.7500    0.0000 C   0  0
    1.2990    0.7500    0.0000 C   0  0
    0.0000    1.5000    0.0000 C   0  0
   -1.2990    0.7500    0.0000 C   0  0
   -1.2990   -0.7500    0.0000 C   0  0
   -2.5972   -1.5031    0.0000 O   0  0
   -2.5951   -3.0039    0.0000 C   0  0
   -1.2935   -3.7495    0.0000 N   0  0
   -1.2883   -5.2495    0.0000 C   0  0
    0.0125   -5.9981    0.0000 N   0  0
    0.0156   -7.4989    0.0000 C   0  0
   -1.2835   -8.2490    0.0000 C   0  0
   -1.2835   -9.7490    0.0000 C   0  0
    0.0156  -10.4990    0.0000 C   0  0
    0.0156  -11.9998    0.0000 N   0  0
   -1.2823  -12.7520    0.0000 C   0  0
   -1.2799  -14.2520    0.0000 C   0  0
    0.0203  -14.9999    0.0000 N   0  0
    0.0258  -16.5007    0.0000 C   0  0
   -1.2707  -17.2550    0.0000 O   0  0
    1.3278  -17.2472    0.0000 O   0  0
    1.3333  -18.7480    0.0000 C   0  0
    2.6346  -19.4941    0.0000 C   0  0
    1.3381  -20.2480    0.0000 C   0  0
    0.0368  -19.5023    0.0000 C   0  0
    1.3182  -14.2478    0.0000 C   0  0
    1.3158  -12.7478    0.0000 C   0  0
    1.3146   -9.7490    0.0000 C   0  0
    1.3146   -8.2490    0.0000 C   0  0
    2.6159   -7.5013    0.0000 O   0  0
    3.9146   -8.2536    0.0000 C   0  0
    5.2152   -7.5063    0.0000 C   0  0
   -2.5847   -6.0040    0.0000 N   0  0
   -3.8863   -5.2585    0.0000 C   0  0
   -3.8915   -3.7585    0.0000 C   0  0
   -5.1932   -3.0130    0.0000 Cl  0  0
    0.0000   -1.5000    0.0000 C   0  0
  1  2  2  0
  2  3  1  0
  3  4  2  0
  3  5  1  0
  5  6  1  0
  6  7  2  0
  7  8  1  0
  8  9  2  0
  9 10  1  0
 10 11  1  0
 11 12  1  0
 12 13  2  0
 13 14  1  0
 14 15  1  0
 15 16  1  0
 16 17  2  0
 17 18  1  0
 18 19  2  0
 19 20  1  0
 20 21  1  0
 21 22  1  0
 22 23  1  0
 23 24  1  0
 24 25  2  0
 24 26  1  0
 26 27  1  0
 27 28  1  0
 27 29  1  0
 27 30  1  0
 23 31  1  0
 31 32  1  0
 32 20  1  0
 19 33  1  0
 33 34  2  0
 34 16  1  0
 34 35  1  0
 35 36  1  0
 36 37  1  0
 14 38  2  0
 38 39  1  0
 39 40  2  0
 40 12  1  0
 40 41  1  0
 10 42  2  0
 42  6  1  0
M  END
> <Name>
CHEMBL3699594

> <pChEMBL_Value>
7.70

$$$$
CHEMBL3699597
  SciTegic08122012322D

 41 44  0  0  0  0            999 V2000
    3.8912   -5.2570    0.0000 C   0  0
    3.8933   -3.7570    0.0000 C   0  0
    2.5951   -3.0039    0.0000 C   0  0
    1.2948   -3.7516    0.0000 O   0  0
    2.5973   -1.5031    0.0000 N   0  0
    1.2990   -0.7500    0.0000 C   0  0
    1.2990    0.7500    0.0000 C   0  0
    0.0000    1.5000    0.0000 C   0  0
   -1.2990    0.7500    0.0000 C   0  0
   -1.2990   -0.7500    0.0000 C   0  0
   -2.5972   -1.5031    0.0000 O   0  0
   -2.5951   -3.0039    0.0000 C   0  0
   -1.2935   -3.7495    0.0000 N   0  0
   -1.2883   -5.2495    0.0000 C   0  0
    0.0125   -5.9981    0.0000 N   0  0
    0.0156   -7.4989    0.0000 C   0  0
   -1.2835   -8.2490    0.0000 C   0  0
   -1.2835   -9.7490    0.0000 C   0  0
    0.0156  -10.4990    0.0000 C   0  0
    0.0156  -11.9998    0.0000 N   0  0
   -1.2823  -12.7520    0.0000 C   0  0
   -1.2799  -14.2520    0.0000 C   0  0
    0.0203  -14.9999    0.0000 N   0  0
    0.0258  -16.5007    0.0000 C   0  0
   -1.2707  -17.2550    0.0000 O   0  0
    1.3278  -17.2472    0.0000 N   0  0
    1.3333  -18.7472    0.0000 C   0  0
    1.3182  -14.2478    0.0000 C   0  0
    1.3158  -12.7478    0.0000 C   0  0
    1.3146   -9.7490    0.0000 C   0  0
    1.3146   -8.2490    0.0000 C   0  0
    2.6159   -7.5013    0.0000 O   0  0
    3.9139   -8.2532    0.0000 C   0  0
   -2.5847   -6.0040    0.0000 N   0  0
   -3.8863   -5.2585    0.0000 C   0  0
   -3.8915   -3.7585    0.0000 C   0  0
   -5.1939   -3.0126    0.0000 C   0  0
   -6.4908   -3.7663    0.0000 F   0  0
   -5.1987   -1.5126    0.0000 F   0  0
   -6.4952   -2.2666    0.0000 F   0  0
    0.0000   -1.5000    0.0000 C   0  0
  1  2  2  0
  2  3  1  0
  3  4  2  0
  3  5  1  0
  5  6  1  0
  6  7  2  0
  7  8  1  0
  8  9  2  0
  9 10  1  0
 10 11  1  0
 11 12  1  0
 12 13  2  0
 13 14  1  0
 14 15  1  0
 15 16  1  0
 16 17  2  0
 17 18  1  0
 18 19  2  0
 19 20  1  0
 20 21  1  0
 21 22  1  0
 22 23  1  0
 23 24  1  0
 24 25  2  0
 24 26  1  0
 26 27  1  0
 23 28  1  0
 28 29  1  0
 29 20  1  0
 19 30  1  0
 30 31  2  0
 31 16  1  0
 31 32  1  0
 32 33  1  0
 14 34  2  0
 34 35  1  0
 35 36  2  0
 36 12  1  0
 36 37  1  0
 37 38  1  0
 37 39  1  0
 37 40  1  0
 10 41  2  0
 41  6  1  0
M  END
> <Name>
CHEMBL3699597

> <pChEMBL_Value>
7.70

$$$$
CHEMBL3699610
  SciTegic08122012322D

 36 39  0  0  0  0            999 V2000
    3.8912   -5.2570    0.0000 C   0  0
    3.8933   -3.7570    0.0000 C   0  0
    2.5951   -3.0039    0.0000 C   0  0
    1.2948   -3.7516    0.0000 O   0  0
    2.5973   -1.5031    0.0000 N   0  0
    1.2990   -0.7500    0.0000 C   0  0
    1.2990    0.7500    0.0000 C   0  0
    0.0000    1.5000    0.0000 C   0  0
   -1.2990    0.7500    0.0000 C   0  0
   -1.2990   -0.7500    0.0000 C   0  0
   -2.5972   -1.5031    0.0000 O   0  0
   -2.5951   -3.0039    0.0000 C   0  0
   -1.2935   -3.7495    0.0000 N   0  0
   -1.2883   -5.2495    0.0000 C   0  0
    0.0125   -5.9981    0.0000 N   0  0
    0.0156   -7.4989    0.0000 C   0  0
   -1.2835   -8.2490    0.0000 C   0  0
   -1.2835   -9.7490    0.0000 C   0  0
    0.0156  -10.4990    0.0000 C   0  0
    0.0156  -11.9998    0.0000 N   0  0
   -1.2823  -12.7520    0.0000 C   0  0
   -1.2799  -14.2520    0.0000 C   0  0
    0.0203  -14.9999    0.0000 O   0  0
    1.3182  -14.2478    0.0000 C   0  0
    1.3158  -12.7478    0.0000 C   0  0
    1.3146   -9.7490    0.0000 C   0  0
    1.3146   -8.2490    0.0000 C   0  0
    2.6159   -7.5013    0.0000 O   0  0
    3.9146   -8.2536    0.0000 C   0  0
    5.2152   -7.5063    0.0000 F   0  0
    3.9119   -9.7536    0.0000 F   0  0
   -2.5847   -6.0040    0.0000 N   0  0
   -3.8863   -5.2585    0.0000 C   0  0
   -3.8915   -3.7585    0.0000 C   0  0
   -5.1932   -3.0130    0.0000 Cl  0  0
    0.0000   -1.5000    0.0000 C   0  0
  1  2  2  0
  2  3  1  0
  3  4  2  0
  3  5  1  0
  5  6  1  0
  6  7  2  0
  7  8  1  0
  8  9  2  0
  9 10  1  0
 10 11  1  0
 11 12  1  0
 12 13  2  0
 13 14  1  0
 14 15  1  0
 15 16  1  0
 16 17  2  0
 17 18  1  0
 18 19  2  0
 19 20  1  0
 20 21  1  0
 21 22  1  0
 22 23  1  0
 23 24  1  0
 24 25  1  0
 25 20  1  0
 19 26  1  0
 26 27  2  0
 27 16  1  0
 27 28  1  0
 28 29  1  0
 29 30  1  0
 29 31  1  0
 14 32  2  0
 32 33  1  0
 33 34  2  0
 34 12  1  0
 34 35  1  0
 10 36  2  0
 36  6  1  0
M  END
> <Name>
CHEMBL3699610

> <pChEMBL_Value>
7.70

$$$$
CHEMBL3699620
  SciTegic08122012322D

 44 47  0  0  0  0            999 V2000
    3.8912   -5.2570    0.0000 C   0  0
    3.8933   -3.7570    0.0000 C   0  0
    2.5951   -3.0039    0.0000 C   0  0
    1.2948   -3.7516    0.0000 O   0  0
    2.5973   -1.5031    0.0000 N   0  0
    1.2990   -0.7500    0.0000 C   0  0
    1.2990    0.7500    0.0000 C   0  0
    0.0000    1.5000    0.0000 C   0  0
   -1.2990    0.7500    0.0000 C   0  0
   -1.2990   -0.7500    0.0000 C   0  0
   -2.5972   -1.5031    0.0000 O   0  0
   -2.5951   -3.0039    0.0000 C   0  0
   -1.2935   -3.7495    0.0000 N   0  0
   -1.2883   -5.2495    0.0000 C   0  0
    0.0125   -5.9981    0.0000 N   0  0
    0.0156   -7.4989    0.0000 C   0  0
   -1.2835   -8.2490    0.0000 C   0  0
   -1.2835   -9.7490    0.0000 C   0  0
    0.0156  -10.4990    0.0000 C   0  0
    0.0156  -11.9998    0.0000 N   0  0
   -1.2823  -12.7520    0.0000 C   0  0
   -1.2799  -14.2520    0.0000 C   0  0
    0.0203  -14.9999    0.0000 N   0  0
    0.0258  -16.5007    0.0000 C   0  0
   -1.2707  -17.2550    0.0000 O   0  0
    1.3278  -17.2472    0.0000 O   0  0
    1.3333  -18.7480    0.0000 C   0  0
    2.6346  -19.4941    0.0000 C   0  0
    1.3381  -20.2480    0.0000 C   0  0
    0.0368  -19.5023    0.0000 C   0  0
    1.3182  -14.2478    0.0000 C   0  0
    1.3158  -12.7478    0.0000 C   0  0
    1.3146   -9.7490    0.0000 C   0  0
    1.3146   -8.2490    0.0000 C   0  0
    2.6159   -7.5013    0.0000 O   0  0
    3.9146   -8.2536    0.0000 C   0  0
    5.2152   -7.5063    0.0000 F   0  0
    3.9119   -9.7536    0.0000 F   0  0
    5.2122   -9.0061    0.0000 F   0  0
   -2.5847   -6.0040    0.0000 N   0  0
   -3.8863   -5.2585    0.0000 C   0  0
   -3.8915   -3.7585    0.0000 C   0  0
   -5.1932   -3.0130    0.0000 Cl  0  0
    0.0000   -1.5000    0.0000 C   0  0
  1  2  2  0
  2  3  1  0
  3  4  2  0
  3  5  1  0
  5  6  1  0
  6  7  2  0
  7  8  1  0
  8  9  2  0
  9 10  1  0
 10 11  1  0
 11 12  1  0
 12 13  2  0
 13 14  1  0
 14 15  1  0
 15 16  1  0
 16 17  2  0
 17 18  1  0
 18 19  2  0
 19 20  1  0
 20 21  1  0
 21 22  1  0
 22 23  1  0
 23 24  1  0
 24 25  2  0
 24 26  1  0
 26 27  1  0
 27 28  1  0
 27 29  1  0
 27 30  1  0
 23 31  1  0
 31 32  1  0
 32 20  1  0
 19 33  1  0
 33 34  2  0
 34 16  1  0
 34 35  1  0
 35 36  1  0
 36 37  1  0
 36 38  1  0
 36 39  1  0
 14 40  2  0
 40 41  1  0
 41 42  2  0
 42 12  1  0
 42 43  1  0
 10 44  2  0
 44  6  1  0
M  END
> <Name>
CHEMBL3699620

> <pChEMBL_Value>
7.70

$$$$
CHEMBL3699589
  SciTegic08122012322D

 41 44  0  0  0  0            999 V2000
    3.8912   -5.2570    0.0000 C   0  0
    3.8933   -3.7570    0.0000 C   0  0
    2.5951   -3.0039    0.0000 C   0  0
    1.2948   -3.7516    0.0000 O   0  0
    2.5973   -1.5031    0.0000 N   0  0
    1.2990   -0.7500    0.0000 C   0  0
    1.2990    0.7500    0.0000 C   0  0
    0.0000    1.5000    0.0000 C   0  0
   -1.2990    0.7500    0.0000 C   0  0
   -1.2990   -0.7500    0.0000 C   0  0
   -2.5972   -1.5031    0.0000 O   0  0
   -2.5951   -3.0039    0.0000 C   0  0
   -1.2935   -3.7495    0.0000 N   0  0
   -1.2883   -5.2495    0.0000 C   0  0
    0.0125   -5.9981    0.0000 N   0  0
    0.0156   -7.4989    0.0000 C   0  0
   -1.2835   -8.2490    0.0000 C   0  0
   -1.2835   -9.7490    0.0000 C   0  0
    0.0156  -10.4990    0.0000 C   0  0
    0.0156  -11.9998    0.0000 N   0  0
   -1.2823  -12.7520    0.0000 C   0  0
   -1.2799  -14.2520    0.0000 C   0  0
    0.0203  -14.9999    0.0000 N   0  0
    0.0258  -16.5007    0.0000 C   0  0
   -1.2707  -17.2550    0.0000 O   0  0
    1.3278  -17.2472    0.0000 C   0  0
    1.3333  -18.7472    0.0000 O   0  0
    1.3182  -14.2478    0.0000 C   0  0
    1.3158  -12.7478    0.0000 C   0  0
    1.3146   -9.7490    0.0000 C   0  0
    1.3146   -8.2490    0.0000 C   0  0
    2.6159   -7.5013    0.0000 O   0  0
    3.9139   -8.2532    0.0000 C   0  0
   -2.5847   -6.0040    0.0000 N   0  0
   -3.8863   -5.2585    0.0000 C   0  0
   -3.8915   -3.7585    0.0000 C   0  0
   -5.1939   -3.0126    0.0000 C   0  0
   -6.4908   -3.7663    0.0000 F   0  0
   -5.1987   -1.5126    0.0000 F   0  0
   -6.4952   -2.2666    0.0000 F   0  0
    0.0000   -1.5000    0.0000 C   0  0
  1  2  2  0
  2  3  1  0
  3  4  2  0
  3  5  1  0
  5  6  1  0
  6  7  2  0
  7  8  1  0
  8  9  2  0
  9 10  1  0
 10 11  1  0
 11 12  1  0
 12 13  2  0
 13 14  1  0
 14 15  1  0
 15 16  1  0
 16 17  2  0
 17 18  1  0
 18 19  2  0
 19 20  1  0
 20 21  1  0
 21 22  1  0
 22 23  1  0
 23 24  1  0
 24 25  2  0
 24 26  1  0
 26 27  1  0
 23 28  1  0
 28 29  1  0
 29 20  1  0
 19 30  1  0
 30 31  2  0
 31 16  1  0
 31 32  1  0
 32 33  1  0
 14 34  2  0
 34 35  1  0
 35 36  2  0
 36 12  1  0
 36 37  1  0
 37 38  1  0
 37 39  1  0
 37 40  1  0
 10 41  2  0
 41  6  1  0
M  END
> <Name>
CHEMBL3699589

> <pChEMBL_Value>
7.70

$$$$
CHEMBL2381516
  SciTegic08122012322D

 61 67  0  0  0  0            999 V2000
    3.8912   -5.2570    0.0000 C   0  0
    3.8933   -3.7570    0.0000 C   0  0
    2.5951   -3.0039    0.0000 C   0  0
    1.2948   -3.7516    0.0000 O   0  0
    2.5973   -1.5031    0.0000 N   0  0
    1.2990   -0.7500    0.0000 C   0  0
    1.2990    0.7500    0.0000 C   0  0
    0.0000    1.5000    0.0000 C   0  0
   -1.2990    0.7500    0.0000 C   0  0
   -1.2990   -0.7500    0.0000 C   0  0
   -2.5972   -1.5031    0.0000 O   0  0
   -2.5951   -3.0039    0.0000 C   0  0
   -1.2935   -3.7495    0.0000 N   0  0
   -1.2883   -5.2495    0.0000 C   0  0
    0.0125   -5.9981    0.0000 N   0  0
    0.0156   -7.4989    0.0000 C   0  0
   -1.2835   -8.2490    0.0000 C   0  0
   -1.2835   -9.7490    0.0000 C   0  0
    0.0156  -10.4990    0.0000 C   0  0
    0.0156  -11.9998    0.0000 N   0  0
   -1.2823  -12.7520    0.0000 C   0  0
   -1.2799  -14.2520    0.0000 C   0  0
    0.0203  -14.9999    0.0000 N   0  0
    0.0258  -16.5007    0.0000 C   0  0
    1.3278  -17.2472    0.0000 C   0  0
    2.6244  -16.4929    0.0000 O   0  0
    1.3333  -18.7480    0.0000 N   0  0
    2.6335  -19.4960    0.0000 C   0  0
    2.6359  -20.9960    0.0000 C   0  0
    1.3381  -21.7481    0.0000 N   0  0
    1.3375  -23.2489    0.0000 C   0  0
    0.0378  -23.9996    0.0000 C   0  0
    0.0372  -25.5004    0.0000 O   0  0
   -1.2624  -26.2511    0.0000 C   0  0
   -2.6127  -25.6275    0.0000 N   0  0
   -3.6184  -26.7404    0.0000 O   0  0
   -2.8709  -28.0408    0.0000 N   0  3
   -3.4835  -29.4100    0.0000 O   0  5
   -1.4031  -27.7317    0.0000 C   0  0
   -0.2839  -28.7277    0.0000 S   0  0
    1.1398  -28.2553    0.0000 O   0  0
    0.0191  -27.2586    0.0000 O   0  0
   -0.5864  -30.1977    0.0000 C   0  0
    0.5348  -31.1941    0.0000 C   0  0
    0.2324  -32.6633    0.0000 C   0  0
   -1.1911  -33.1361    0.0000 C   0  0
   -2.3123  -32.1397    0.0000 C   0  0
   -2.0100  -30.6704    0.0000 C   0  0
    0.0379  -21.0002    0.0000 C   0  0
    0.0355  -19.5002    0.0000 C   0  0
    1.3182  -14.2478    0.0000 C   0  0
    1.3158  -12.7478    0.0000 C   0  0
    1.3146   -9.7490    0.0000 C   0  0
    1.3146   -8.2490    0.0000 C   0  0
    2.6159   -7.5013    0.0000 O   0  0
    3.9139   -8.2532    0.0000 C   0  0
   -2.5847   -6.0040    0.0000 N   0  0
   -3.8863   -5.2585    0.0000 C   0  0
   -3.8915   -3.7585    0.0000 C   0  0
   -5.1932   -3.0130    0.0000 Cl  0  0
    0.0000   -1.5000    0.0000 C   0  0
  1  2  2  0
  2  3  1  0
  3  4  2  0
  3  5  1  0
  5  6  1  0
  6  7  2  0
  7  8  1  0
  8  9  2  0
  9 10  1  0
 10 11  1  0
 11 12  1  0
 12 13  2  0
 13 14  1  0
 14 15  1  0
 15 16  1  0
 16 17  2  0
 17 18  1  0
 18 19  2  0
 19 20  1  0
 20 21  1  0
 21 22  1  0
 22 23  1  0
 23 24  1  0
 24 25  1  0
 25 26  2  0
 25 27  1  0
 27 28  1  0
 28 29  1  0
 29 30  1  0
 30 31  1  0
 31 32  1  0
 32 33  1  0
 33 34  1  0
 34 35  2  0
 35 36  1  0
 36 37  1  0
 37 38  1  0
 37 39  2  0
 39 34  1  0
 39 40  1  0
 40 41  2  0
 40 42  2  0
 40 43  1  0
 43 44  2  0
 44 45  1  0
 45 46  2  0
 46 47  1  0
 47 48  2  0
 48 43  1  0
 30 49  1  0
 49 50  1  0
 50 27  1  0
 23 51  1  0
 51 52  1  0
 52 20  1  0
 19 53  1  0
 53 54  2  0
 54 16  1  0
 54 55  1  0
 55 56  1  0
 14 57  2  0
 57 58  1  0
 58 59  2  0
 59 12  1  0
 59 60  1  0
 10 61  2  0
 61  6  1  0
M  CHG  2  37   1  38  -1
M  END
> <Name>
CHEMBL2381516

> <pChEMBL_Value>
7.41

$$$$
CHEMBL3798128
  SciTegic08122012322D

 40 43  0  0  0  0            999 V2000
    3.8912   -5.2570    0.0000 C   0  0
    3.8933   -3.7570    0.0000 C   0  0
    2.5951   -3.0039    0.0000 C   0  0
    1.2948   -3.7516    0.0000 O   0  0
    2.5973   -1.5031    0.0000 N   0  0
    1.2990   -0.7500    0.0000 C   0  0
    1.2990    0.7500    0.0000 C   0  0
    0.0000    1.5000    0.0000 C   0  0
   -1.2990    0.7500    0.0000 C   0  0
   -1.2990   -0.7500    0.0000 C   0  0
   -2.5972   -1.5031    0.0000 O   0  0
   -2.5951   -3.0039    0.0000 C   0  0
   -1.2935   -3.7495    0.0000 N   0  0
   -1.2883   -5.2495    0.0000 C   0  0
    0.0125   -5.9981    0.0000 N   0  0
    0.0156   -7.4989    0.0000 C   0  0
   -1.2835   -8.2490    0.0000 C   0  0
   -1.2835   -9.7490    0.0000 C   0  0
    0.0156  -10.4990    0.0000 C   0  0
    0.0156  -11.9998    0.0000 N   0  0
   -1.2823  -12.7520    0.0000 C   0  0
   -1.2799  -14.2520    0.0000 C   0  0
    0.0203  -14.9999    0.0000 N   0  0
    0.0258  -16.5007    0.0000 C   0  0
   -1.2707  -17.2550    0.0000 C   0  0
    1.3271  -17.2468    0.0000 O   0  0
    1.3182  -14.2478    0.0000 C   0  0
    1.3158  -12.7478    0.0000 C   0  0
    1.3146   -9.7490    0.0000 C   0  0
    1.3146   -8.2490    0.0000 C   0  0
    2.6159   -7.5013    0.0000 O   0  0
    3.9146   -8.2536    0.0000 C   0  0
    5.2152   -7.5063    0.0000 F   0  0
    3.9119   -9.7536    0.0000 F   0  0
   -2.5847   -6.0040    0.0000 N   0  0
   -3.8863   -5.2585    0.0000 C   0  0
   -3.8915   -3.7585    0.0000 C   0  0
   -5.1954   -3.0153    0.0000 S   0  0
   -6.4908   -3.7717    0.0000 C   0  0
    0.0000   -1.5000    0.0000 C   0  0
  1  2  2  0
  2  3  1  0
  3  4  2  0
  3  5  1  0
  5  6  1  0
  6  7  2  0
  7  8  1  0
  8  9  2  0
  9 10  1  0
 10 11  1  0
 11 12  1  0
 12 13  2  0
 13 14  1  0
 14 15  1  0
 15 16  1  0
 16 17  2  0
 17 18  1  0
 18 19  2  0
 19 20  1  0
 20 21  1  0
 21 22  1  0
 22 23  1  0
 23 24  1  0
 24 25  1  0
 24 26  2  0
 23 27  1  0
 27 28  1  0
 28 20  1  0
 19 29  1  0
 29 30  2  0
 30 16  1  0
 30 31  1  0
 31 32  1  0
 32 33  1  0
 32 34  1  0
 14 35  2  0
 35 36  1  0
 36 37  2  0
 37 12  1  0
 37 38  1  0
 38 39  1  0
 10 40  2  0
 40  6  1  0
M  END
> <Name>
CHEMBL3798128

> <pChEMBL_Value>
7.41

$$$$
CHEMBL2381504
  SciTegic08122012322D

 59 65  0  0  0  0            999 V2000
    3.8912   -5.2570    0.0000 C   0  0
    3.8933   -3.7570    0.0000 C   0  0
    2.5951   -3.0039    0.0000 C   0  0
    1.2948   -3.7516    0.0000 O   0  0
    2.5973   -1.5031    0.0000 N   0  0
    1.2990   -0.7500    0.0000 C   0  0
    1.2990    0.7500    0.0000 C   0  0
    0.0000    1.5000    0.0000 C   0  0
   -1.2990    0.7500    0.0000 C   0  0
   -1.2990   -0.7500    0.0000 C   0  0
   -2.5972   -1.5031    0.0000 O   0  0
   -2.5951   -3.0039    0.0000 C   0  0
   -1.2935   -3.7495    0.0000 N   0  0
   -1.2883   -5.2495    0.0000 C   0  0
    0.0125   -5.9981    0.0000 N   0  0
    0.0156   -7.4989    0.0000 C   0  0
   -1.2835   -8.2490    0.0000 C   0  0
   -1.2835   -9.7490    0.0000 C   0  0
    0.0156  -10.4990    0.0000 C   0  0
    0.0156  -11.9998    0.0000 N   0  0
   -1.2823  -12.7520    0.0000 C   0  0
   -1.2799  -14.2520    0.0000 C   0  0
    0.0203  -14.9999    0.0000 N   0  0
    0.0258  -16.5007    0.0000 C   0  0
    1.3278  -17.2472    0.0000 C   0  0
    2.6244  -16.4929    0.0000 O   0  0
    1.3333  -18.7480    0.0000 N   0  0
    2.6335  -19.4960    0.0000 C   0  0
    2.6359  -20.9960    0.0000 C   0  0
    1.3381  -21.7481    0.0000 C   0  0
    1.3375  -23.2489    0.0000 O   0  0
    0.0378  -23.9996    0.0000 C   0  0
   -1.3124  -23.3760    0.0000 N   0  0
   -2.3182  -24.4889    0.0000 O   0  0
   -1.5706  -25.7893    0.0000 N   0  3
   -2.1832  -27.1585    0.0000 O   0  5
   -0.1028  -25.4802    0.0000 C   0  0
    1.0164  -26.4762    0.0000 S   0  0
    2.4401  -26.0039    0.0000 O   0  0
    1.3194  -25.0071    0.0000 O   0  0
    0.7139  -27.9462    0.0000 C   0  0
    1.8351  -28.9426    0.0000 C   0  0
    1.5327  -30.4119    0.0000 C   0  0
    0.1092  -30.8846    0.0000 C   0  0
   -1.0120  -29.8882    0.0000 C   0  0
   -0.7097  -28.4190    0.0000 C   0  0
    0.0379  -21.0002    0.0000 C   0  0
    0.0355  -19.5002    0.0000 C   0  0
    1.3182  -14.2478    0.0000 C   0  0
    1.3158  -12.7478    0.0000 C   0  0
    1.3146   -9.7490    0.0000 C   0  0
    1.3146   -8.2490    0.0000 C   0  0
    2.6159   -7.5013    0.0000 O   0  0
    3.9139   -8.2532    0.0000 C   0  0
   -2.5847   -6.0040    0.0000 N   0  0
   -3.8863   -5.2585    0.0000 C   0  0
   -3.8915   -3.7585    0.0000 C   0  0
   -5.1932   -3.0130    0.0000 Cl  0  0
    0.0000   -1.5000    0.0000 C   0  0
  1  2  2  0
  2  3  1  0
  3  4  2  0
  3  5  1  0
  5  6  1  0
  6  7  2  0
  7  8  1  0
  8  9  2  0
  9 10  1  0
 10 11  1  0
 11 12  1  0
 12 13  2  0
 13 14  1  0
 14 15  1  0
 15 16  1  0
 16 17  2  0
 17 18  1  0
 18 19  2  0
 19 20  1  0
 20 21  1  0
 21 22  1  0
 22 23  1  0
 23 24  1  0
 24 25  1  0
 25 26  2  0
 25 27  1  0
 27 28  1  0
 28 29  1  0
 29 30  1  0
 30 31  1  0
 31 32  1  0
 32 33  2  0
 33 34  1  0
 34 35  1  0
 35 36  1  0
 35 37  2  0
 37 32  1  0
 37 38  1  0
 38 39  2  0
 38 40  2  0
 38 41  1  0
 41 42  2  0
 42 43  1  0
 43 44  2  0
 44 45  1  0
 45 46  2  0
 46 41  1  0
 30 47  1  0
 47 48  1  0
 48 27  1  0
 23 49  1  0
 49 50  1  0
 50 20  1  0
 19 51  1  0
 51 52  2  0
 52 16  1  0
 52 53  1  0
 53 54  1  0
 14 55  2  0
 55 56  1  0
 56 57  2  0
 57 12  1  0
 57 58  1  0
 10 59  2  0
 59  6  1  0
M  CHG  2  35   1  36  -1
M  END
> <Name>
CHEMBL2381504

> <pChEMBL_Value>
7.38

$$$$
CHEMBL3799428
  SciTegic08122012322D

 41 44  0  0  0  0            999 V2000
    3.8912   -5.2570    0.0000 C   0  0
    3.8933   -3.7570    0.0000 C   0  0
    2.5951   -3.0039    0.0000 C   0  0
    1.2948   -3.7516    0.0000 O   0  0
    2.5973   -1.5031    0.0000 N   0  0
    1.2990   -0.7500    0.0000 C   0  0
    1.2990    0.7500    0.0000 C   0  0
    0.0000    1.5000    0.0000 C   0  0
   -1.2990    0.7500    0.0000 C   0  0
   -1.2990   -0.7500    0.0000 C   0  0
   -2.5972   -1.5031    0.0000 O   0  0
   -2.5951   -3.0039    0.0000 C   0  0
   -1.2935   -3.7495    0.0000 N   0  0
   -1.2883   -5.2495    0.0000 C   0  0
    0.0125   -5.9981    0.0000 N   0  0
    0.0156   -7.4989    0.0000 C   0  0
   -1.2835   -8.2490    0.0000 C   0  0
   -1.2835   -9.7490    0.0000 C   0  0
    0.0156  -10.4990    0.0000 C   0  0
    0.0156  -11.9998    0.0000 N   0  0
   -1.2823  -12.7520    0.0000 C   0  0
   -1.2799  -14.2520    0.0000 C   0  0
    0.0203  -14.9999    0.0000 N   0  0
    0.0258  -16.5007    0.0000 C   0  0
   -1.2707  -17.2550    0.0000 O   0  0
    1.3278  -17.2472    0.0000 C   0  0
    1.3333  -18.7472    0.0000 C   0  0
    1.3182  -14.2478    0.0000 C   0  0
    1.3158  -12.7478    0.0000 C   0  0
    1.3146   -9.7490    0.0000 C   0  0
    1.3146   -8.2490    0.0000 C   0  0
    2.6159   -7.5013    0.0000 O   0  0
    3.9146   -8.2536    0.0000 C   0  0
    5.2152   -7.5063    0.0000 F   0  0
    3.9119   -9.7536    0.0000 F   0  0
   -2.5847   -6.0040    0.0000 N   0  0
   -3.8863   -5.2585    0.0000 C   0  0
   -3.8915   -3.7585    0.0000 C   0  0
   -5.1954   -3.0153    0.0000 S   0  0
   -6.4908   -3.7717    0.0000 C   0  0
    0.0000   -1.5000    0.0000 C   0  0
  1  2  2  0
  2  3  1  0
  3  4  2  0
  3  5  1  0
  5  6  1  0
  6  7  2  0
  7  8  1  0
  8  9  2  0
  9 10  1  0
 10 11  1  0
 11 12  1  0
 12 13  2  0
 13 14  1  0
 14 15  1  0
 15 16  1  0
 16 17  2  0
 17 18  1  0
 18 19  2  0
 19 20  1  0
 20 21  1  0
 21 22  1  0
 22 23  1  0
 23 24  1  0
 24 25  2  0
 24 26  1  0
 26 27  1  0
 23 28  1  0
 28 29  1  0
 29 20  1  0
 19 30  1  0
 30 31  2  0
 31 16  1  0
 31 32  1  0
 32 33  1  0
 33 34  1  0
 33 35  1  0
 14 36  2  0
 36 37  1  0
 37 38  2  0
 38 12  1  0
 38 39  1  0
 39 40  1  0
 10 41  2  0
 41  6  1  0
M  END
> <Name>
CHEMBL3799428

> <pChEMBL_Value>
7.33

$$$$
CHEMBL2381514
  SciTegic08122012322D

 56 61  0  0  0  0            999 V2000
    3.8912   -5.2570    0.0000 C   0  0
    3.8933   -3.7570    0.0000 C   0  0
    2.5951   -3.0039    0.0000 C   0  0
    1.2948   -3.7516    0.0000 O   0  0
    2.5973   -1.5031    0.0000 N   0  0
    1.2990   -0.7500    0.0000 C   0  0
    1.2990    0.7500    0.0000 C   0  0
    0.0000    1.5000    0.0000 C   0  0
   -1.2990    0.7500    0.0000 C   0  0
   -1.2990   -0.7500    0.0000 C   0  0
   -2.5972   -1.5031    0.0000 O   0  0
   -2.5951   -3.0039    0.0000 C   0  0
   -1.2935   -3.7495    0.0000 N   0  0
   -1.2883   -5.2495    0.0000 C   0  0
    0.0125   -5.9981    0.0000 N   0  0
    0.0156   -7.4989    0.0000 C   0  0
   -1.2835   -8.2490    0.0000 C   0  0
   -1.2835   -9.7490    0.0000 C   0  0
    0.0156  -10.4990    0.0000 C   0  0
    0.0156  -11.9998    0.0000 N   0  0
   -1.2823  -12.7520    0.0000 C   0  0
   -1.2799  -14.2520    0.0000 C   0  0
    0.0203  -14.9999    0.0000 N   0  0
    0.0258  -16.5007    0.0000 C   0  0
    1.3278  -17.2472    0.0000 C   0  0
    2.6244  -16.4929    0.0000 O   0  0
    1.3333  -18.7480    0.0000 N   0  0
    2.6353  -19.4945    0.0000 C   0  0
    2.6408  -20.9953    0.0000 C   0  0
    3.9428  -21.7418    0.0000 O   0  0
    3.9483  -23.2426    0.0000 C   0  0
    2.7361  -24.1044    0.0000 N   0  0
    3.2019  -25.5302    0.0000 O   0  0
    4.7019  -25.5278    0.0000 N   0  3
    5.5855  -26.7400    0.0000 O   0  5
    5.1631  -24.1005    0.0000 C   0  0
    6.5836  -23.6244    0.0000 S   0  0
    6.8814  -22.1542    0.0000 O   0  0
    5.4595  -22.6313    0.0000 O   0  0
    7.7089  -24.6175    0.0000 C   0  0
    7.4116  -26.0877    0.0000 C   0  0
    8.5363  -27.0803    0.0000 C   0  0
    9.9582  -26.6026    0.0000 C   0  0
   10.2555  -25.1323    0.0000 C   0  0
    9.1308  -24.1398    0.0000 C   0  0
    1.3182  -14.2478    0.0000 C   0  0
    1.3158  -12.7478    0.0000 C   0  0
    1.3146   -9.7490    0.0000 C   0  0
    1.3146   -8.2490    0.0000 C   0  0
    2.6159   -7.5013    0.0000 O   0  0
    3.9139   -8.2532    0.0000 C   0  0
   -2.5847   -6.0040    0.0000 N   0  0
   -3.8863   -5.2585    0.0000 C   0  0
   -3.8915   -3.7585    0.0000 C   0  0
   -5.1932   -3.0130    0.0000 Cl  0  0
    0.0000   -1.5000    0.0000 C   0  0
  1  2  2  0
  2  3  1  0
  3  4  2  0
  3  5  1  0
  5  6  1  0
  6  7  2  0
  7  8  1  0
  8  9  2  0
  9 10  1  0
 10 11  1  0
 11 12  1  0
 12 13  2  0
 13 14  1  0
 14 15  1  0
 15 16  1  0
 16 17  2  0
 17 18  1  0
 18 19  2  0
 19 20  1  0
 20 21  1  0
 21 22  1  0
 22 23  1  0
 23 24  1  0
 24 25  1  0
 25 26  2  0
 25 27  1  0
 27 28  1  0
 28 29  1  0
 29 30  1  0
 30 31  1  0
 31 32  2  0
 32 33  1  0
 33 34  1  0
 34 35  1  0
 34 36  2  0
 36 31  1  0
 36 37  1  0
 37 38  2  0
 37 39  2  0
 37 40  1  0
 40 41  2  0
 41 42  1  0
 42 43  2  0
 43 44  1  0
 44 45  2  0
 45 40  1  0
 23 46  1  0
 46 47  1  0
 47 20  1  0
 19 48  1  0
 48 49  2  0
 49 16  1  0
 49 50  1  0
 50 51  1  0
 14 52  2  0
 52 53  1  0
 53 54  2  0
 54 12  1  0
 54 55  1  0
 10 56  2  0
 56  6  1  0
M  CHG  2  34   1  35  -1
M  END
> <Name>
CHEMBL2381514

> <pChEMBL_Value>
7.29

$$$$
CHEMBL2381509
  SciTegic08122012322D

 58 63  0  0  0  0            999 V2000
    3.8912   -5.2570    0.0000 C   0  0
    3.8933   -3.7570    0.0000 C   0  0
    2.5951   -3.0039    0.0000 C   0  0
    1.2948   -3.7516    0.0000 O   0  0
    2.5973   -1.5031    0.0000 N   0  0
    1.2990   -0.7500    0.0000 C   0  0
    1.2990    0.7500    0.0000 C   0  0
    0.0000    1.5000    0.0000 C   0  0
   -1.2990    0.7500    0.0000 C   0  0
   -1.2990   -0.7500    0.0000 C   0  0
   -2.5972   -1.5031    0.0000 O   0  0
   -2.5951   -3.0039    0.0000 C   0  0
   -1.2935   -3.7495    0.0000 N   0  0
   -1.2883   -5.2495    0.0000 C   0  0
    0.0125   -5.9981    0.0000 N   0  0
    0.0156   -7.4989    0.0000 C   0  0
   -1.2835   -8.2490    0.0000 C   0  0
   -1.2835   -9.7490    0.0000 C   0  0
    0.0156  -10.4990    0.0000 C   0  0
    0.0156  -11.9998    0.0000 N   0  0
   -1.2823  -12.7520    0.0000 C   0  0
   -1.2799  -14.2520    0.0000 C   0  0
    0.0203  -14.9999    0.0000 N   0  0
    0.0258  -16.5007    0.0000 C   0  0
    1.3278  -17.2472    0.0000 C   0  0
    2.6244  -16.4929    0.0000 O   0  0
    1.3333  -18.7480    0.0000 O   0  0
    2.6353  -19.4945    0.0000 C   0  0
    2.6408  -20.9953    0.0000 C   0  0
    2.6463  -22.4961    0.0000 C   0  0
    2.6517  -23.9970    0.0000 C   0  0
    3.9537  -24.7434    0.0000 O   0  0
    3.9592  -26.2443    0.0000 C   0  0
    2.7470  -27.1060    0.0000 N   0  0
    3.2129  -28.5319    0.0000 O   0  0
    4.7129  -28.5295    0.0000 N   0  3
    5.5965  -29.7416    0.0000 O   0  5
    5.1741  -27.1021    0.0000 C   0  0
    6.5946  -26.6260    0.0000 S   0  0
    6.8923  -25.1558    0.0000 O   0  0
    5.4704  -25.6329    0.0000 O   0  0
    7.7199  -27.6191    0.0000 C   0  0
    7.4226  -29.0894    0.0000 C   0  0
    8.5472  -30.0819    0.0000 C   0  0
    9.9692  -29.6042    0.0000 C   0  0
   10.2664  -28.1340    0.0000 C   0  0
    9.1418  -27.1414    0.0000 C   0  0
    1.3182  -14.2478    0.0000 C   0  0
    1.3158  -12.7478    0.0000 C   0  0
    1.3146   -9.7490    0.0000 C   0  0
    1.3146   -8.2490    0.0000 C   0  0
    2.6159   -7.5013    0.0000 O   0  0
    3.9139   -8.2532    0.0000 C   0  0
   -2.5847   -6.0040    0.0000 N   0  0
   -3.8863   -5.2585    0.0000 C   0  0
   -3.8915   -3.7585    0.0000 C   0  0
   -5.1932   -3.0130    0.0000 Cl  0  0
    0.0000   -1.5000    0.0000 C   0  0
  1  2  2  0
  2  3  1  0
  3  4  2  0
  3  5  1  0
  5  6  1  0
  6  7  2  0
  7  8  1  0
  8  9  2  0
  9 10  1  0
 10 11  1  0
 11 12  1  0
 12 13  2  0
 13 14  1  0
 14 15  1  0
 15 16  1  0
 16 17  2  0
 17 18  1  0
 18 19  2  0
 19 20  1  0
 20 21  1  0
 21 22  1  0
 22 23  1  0
 23 24  1  0
 24 25  1  0
 25 26  2  0
 25 27  1  0
 27 28  1  0
 28 29  1  0
 29 30  3  0
 30 31  1  0
 31 32  1  0
 32 33  1  0
 33 34  2  0
 34 35  1  0
 35 36  1  0
 36 37  1  0
 36 38  2  0
 38 33  1  0
 38 39  1  0
 39 40  2  0
 39 41  2  0
 39 42  1  0
 42 43  2  0
 43 44  1  0
 44 45  2  0
 45 46  1  0
 46 47  2  0
 47 42  1  0
 23 48  1  0
 48 49  1  0
 49 20  1  0
 19 50  1  0
 50 51  2  0
 51 16  1  0
 51 52  1  0
 52 53  1  0
 14 54  2  0
 54 55  1  0
 55 56  2  0
 56 12  1  0
 56 57  1  0
 10 58  2  0
 58  6  1  0
M  CHG  2  36   1  37  -1
M  END
> <Name>
CHEMBL2381509

> <pChEMBL_Value>
7.28

$$$$
CHEMBL3985134
  SciTegic08122012322D

 35 37  0  0  0  0            999 V2000
    3.8912   -5.2570    0.0000 C   0  0
    3.8933   -3.7570    0.0000 C   0  0
    2.5951   -3.0039    0.0000 C   0  0
    1.2948   -3.7516    0.0000 O   0  0
    2.5973   -1.5031    0.0000 N   0  0
    1.2990   -0.7500    0.0000 C   0  0
    1.2990    0.7500    0.0000 C   0  0
    0.0000    1.5000    0.0000 C   0  0
   -1.2990    0.7500    0.0000 C   0  0
   -1.2990   -0.7500    0.0000 C   0  0
   -2.5972   -1.5031    0.0000 O   0  0
   -2.5951   -3.0039    0.0000 C   0  0
   -1.2935   -3.7495    0.0000 N   0  0
   -1.2883   -5.2495    0.0000 C   0  0
    0.0125   -5.9981    0.0000 N   0  0
    0.0156   -7.4989    0.0000 C   0  0
   -1.2835   -8.2490    0.0000 C   0  0
   -1.2835   -9.7490    0.0000 C   0  0
    0.0156  -10.4990    0.0000 C   0  0
    0.0125  -11.9999    0.0000 O   0  0
   -1.2876  -12.7480    0.0000 C   0  0
    1.3146   -9.7490    0.0000 C   0  0
    2.6159  -10.4968    0.0000 O   0  0
    3.9139   -9.7449    0.0000 C   0  0
    1.3146   -8.2490    0.0000 C   0  0
    2.6128   -7.4960    0.0000 O   0  0
    2.6108   -5.9960    0.0000 C   0  0
   -2.5847   -6.0040    0.0000 N   0  0
   -3.8863   -5.2585    0.0000 C   0  0
   -3.8915   -3.7585    0.0000 C   0  0
   -5.1939   -3.0126    0.0000 C   0  0
   -6.4908   -3.7663    0.0000 F   0  0
   -5.1987   -1.5126    0.0000 F   0  0
   -6.4952   -2.2666    0.0000 F   0  0
    0.0000   -1.5000    0.0000 C   0  0
  1  2  2  0
  2  3  1  0
  3  4  2  0
  3  5  1  0
  5  6  1  0
  6  7  2  0
  7  8  1  0
  8  9  2  0
  9 10  1  0
 10 11  1  0
 11 12  1  0
 12 13  2  0
 13 14  1  0
 14 15  1  0
 15 16  1  0
 16 17  2  0
 17 18  1  0
 18 19  2  0
 19 20  1  0
 20 21  1  0
 19 22  1  0
 22 23  1  0
 23 24  1  0
 22 25  2  0
 25 16  1  0
 25 26  1  0
 26 27  1  0
 14 28  2  0
 28 29  1  0
 29 30  2  0
 30 12  1  0
 30 31  1  0
 31 32  1  0
 31 33  1  0
 31 34  1  0
 10 35  2  0
 35  6  1  0
M  END
> <Name>
CHEMBL3985134

> <pChEMBL_Value>
7.26

$$$$
CHEMBL2381506
  SciTegic08122012322D

 56 61  0  0  0  0            999 V2000
    3.8912   -5.2570    0.0000 C   0  0
    3.8933   -3.7570    0.0000 C   0  0
    2.5951   -3.0039    0.0000 C   0  0
    1.2948   -3.7516    0.0000 O   0  0
    2.5973   -1.5031    0.0000 N   0  0
    1.2990   -0.7500    0.0000 C   0  0
    1.2990    0.7500    0.0000 C   0  0
    0.0000    1.5000    0.0000 C   0  0
   -1.2990    0.7500    0.0000 C   0  0
   -1.2990   -0.7500    0.0000 C   0  0
   -2.5972   -1.5031    0.0000 O   0  0
   -2.5951   -3.0039    0.0000 C   0  0
   -1.2935   -3.7495    0.0000 N   0  0
   -1.2883   -5.2495    0.0000 C   0  0
    0.0125   -5.9981    0.0000 N   0  0
    0.0156   -7.4989    0.0000 C   0  0
   -1.2835   -8.2490    0.0000 C   0  0
   -1.2835   -9.7490    0.0000 C   0  0
    0.0156  -10.4990    0.0000 C   0  0
    0.0156  -11.9998    0.0000 N   0  0
   -1.2823  -12.7520    0.0000 C   0  0
   -1.2799  -14.2520    0.0000 C   0  0
    0.0203  -14.9999    0.0000 N   0  0
    0.0258  -16.5007    0.0000 C   0  0
    1.3278  -17.2472    0.0000 C   0  0
    2.6244  -16.4929    0.0000 O   0  0
    1.3333  -18.7480    0.0000 O   0  0
    2.6353  -19.4945    0.0000 C   0  0
    2.6408  -20.9953    0.0000 C   0  0
    3.9428  -21.7418    0.0000 O   0  0
    3.9483  -23.2426    0.0000 C   0  0
    2.7361  -24.1044    0.0000 N   0  0
    3.2019  -25.5302    0.0000 O   0  0
    4.7019  -25.5278    0.0000 N   0  3
    5.5855  -26.7400    0.0000 O   0  5
    5.1631  -24.1005    0.0000 C   0  0
    6.5836  -23.6244    0.0000 S   0  0
    6.8814  -22.1542    0.0000 O   0  0
    5.4595  -22.6313    0.0000 O   0  0
    7.7089  -24.6175    0.0000 C   0  0
    7.4116  -26.0877    0.0000 C   0  0
    8.5363  -27.0803    0.0000 C   0  0
    9.9582  -26.6026    0.0000 C   0  0
   10.2555  -25.1323    0.0000 C   0  0
    9.1308  -24.1398    0.0000 C   0  0
    1.3182  -14.2478    0.0000 C   0  0
    1.3158  -12.7478    0.0000 C   0  0
    1.3146   -9.7490    0.0000 C   0  0
    1.3146   -8.2490    0.0000 C   0  0
    2.6159   -7.5013    0.0000 O   0  0
    3.9139   -8.2532    0.0000 C   0  0
   -2.5847   -6.0040    0.0000 N   0  0
   -3.8863   -5.2585    0.0000 C   0  0
   -3.8915   -3.7585    0.0000 C   0  0
   -5.1932   -3.0130    0.0000 Cl  0  0
    0.0000   -1.5000    0.0000 C   0  0
  1  2  2  0
  2  3  1  0
  3  4  2  0
  3  5  1  0
  5  6  1  0
  6  7  2  0
  7  8  1  0
  8  9  2  0
  9 10  1  0
 10 11  1  0
 11 12  1  0
 12 13  2  0
 13 14  1  0
 14 15  1  0
 15 16  1  0
 16 17  2  0
 17 18  1  0
 18 19  2  0
 19 20  1  0
 20 21  1  0
 21 22  1  0
 22 23  1  0
 23 24  1  0
 24 25  1  0
 25 26  2  0
 25 27  1  0
 27 28  1  0
 28 29  1  0
 29 30  1  0
 30 31  1  0
 31 32  2  0
 32 33  1  0
 33 34  1  0
 34 35  1  0
 34 36  2  0
 36 31  1  0
 36 37  1  0
 37 38  2  0
 37 39  2  0
 37 40  1  0
 40 41  2  0
 41 42  1  0
 42 43  2  0
 43 44  1  0
 44 45  2  0
 45 40  1  0
 23 46  1  0
 46 47  1  0
 47 20  1  0
 19 48  1  0
 48 49  2  0
 49 16  1  0
 49 50  1  0
 50 51  1  0
 14 52  2  0
 52 53  1  0
 53 54  2  0
 54 12  1  0
 54 55  1  0
 10 56  2  0
 56  6  1  0
M  CHG  2  34   1  35  -1
M  END
> <Name>
CHEMBL2381506

> <pChEMBL_Value>
7.23

$$$$
CHEMBL2381515
  SciTegic08122012322D

 57 62  0  0  0  0            999 V2000
    3.8912   -5.2570    0.0000 C   0  0
    3.8933   -3.7570    0.0000 C   0  0
    2.5951   -3.0039    0.0000 C   0  0
    1.2948   -3.7516    0.0000 O   0  0
    2.5973   -1.5031    0.0000 N   0  0
    1.2990   -0.7500    0.0000 C   0  0
    1.2990    0.7500    0.0000 C   0  0
    0.0000    1.5000    0.0000 C   0  0
   -1.2990    0.7500    0.0000 C   0  0
   -1.2990   -0.7500    0.0000 C   0  0
   -2.5972   -1.5031    0.0000 O   0  0
   -2.5951   -3.0039    0.0000 C   0  0
   -1.2935   -3.7495    0.0000 N   0  0
   -1.2883   -5.2495    0.0000 C   0  0
    0.0125   -5.9981    0.0000 N   0  0
    0.0156   -7.4989    0.0000 C   0  0
   -1.2835   -8.2490    0.0000 C   0  0
   -1.2835   -9.7490    0.0000 C   0  0
    0.0156  -10.4990    0.0000 C   0  0
    0.0156  -11.9998    0.0000 N   0  0
   -1.2823  -12.7520    0.0000 C   0  0
   -1.2799  -14.2520    0.0000 C   0  0
    0.0203  -14.9999    0.0000 N   0  0
    0.0258  -16.5007    0.0000 C   0  0
    1.3278  -17.2472    0.0000 C   0  0
    2.6244  -16.4929    0.0000 O   0  0
    1.3333  -18.7480    0.0000 N   0  0
    2.6353  -19.4945    0.0000 C   0  0
    2.6408  -20.9953    0.0000 C   0  0
    3.9428  -21.7418    0.0000 C   0  0
    3.9483  -23.2426    0.0000 O   0  0
    5.2503  -23.9891    0.0000 C   0  0
    6.5985  -23.3612    0.0000 N   0  0
    7.6078  -24.4709    0.0000 O   0  0
    6.8644  -25.7737    0.0000 N   0  3
    7.4815  -27.1409    0.0000 O   0  5
    5.3957  -25.4692    0.0000 C   0  0
    4.2797  -26.4688    0.0000 S   0  0
    2.8545  -26.0011    0.0000 O   0  0
    3.9719  -25.0007    0.0000 O   0  0
    4.5869  -27.9379    0.0000 C   0  0
    3.4689  -28.9379    0.0000 C   0  0
    3.7759  -30.4061    0.0000 C   0  0
    5.2010  -30.8743    0.0000 C   0  0
    6.3190  -29.8743    0.0000 C   0  0
    6.0120  -28.4061    0.0000 C   0  0
    1.3182  -14.2478    0.0000 C   0  0
    1.3158  -12.7478    0.0000 C   0  0
    1.3146   -9.7490    0.0000 C   0  0
    1.3146   -8.2490    0.0000 C   0  0
    2.6159   -7.5013    0.0000 O   0  0
    3.9139   -8.2532    0.0000 C   0  0
   -2.5847   -6.0040    0.0000 N   0  0
   -3.8863   -5.2585    0.0000 C   0  0
   -3.8915   -3.7585    0.0000 C   0  0
   -5.1932   -3.0130    0.0000 Cl  0  0
    0.0000   -1.5000    0.0000 C   0  0
  1  2  2  0
  2  3  1  0
  3  4  2  0
  3  5  1  0
  5  6  1  0
  6  7  2  0
  7  8  1  0
  8  9  2  0
  9 10  1  0
 10 11  1  0
 11 12  1  0
 12 13  2  0
 13 14  1  0
 14 15  1  0
 15 16  1  0
 16 17  2  0
 17 18  1  0
 18 19  2  0
 19 20  1  0
 20 21  1  0
 21 22  1  0
 22 23  1  0
 23 24  1  0
 24 25  1  0
 25 26  2  0
 25 27  1  0
 27 28  1  0
 28 29  1  0
 29 30  1  0
 30 31  1  0
 31 32  1  0
 32 33  2  0
 33 34  1  0
 34 35  1  0
 35 36  1  0
 35 37  2  0
 37 32  1  0
 37 38  1  0
 38 39  2  0
 38 40  2  0
 38 41  1  0
 41 42  2  0
 42 43  1  0
 43 44  2  0
 44 45  1  0
 45 46  2  0
 46 41  1  0
 23 47  1  0
 47 48  1  0
 48 20  1  0
 19 49  1  0
 49 50  2  0
 50 16  1  0
 50 51  1  0
 51 52  1  0
 14 53  2  0
 53 54  1  0
 54 55  2  0
 55 12  1  0
 55 56  1  0
 10 57  2  0
 57  6  1  0
M  CHG  2  35   1  36  -1
M  END
> <Name>
CHEMBL2381515

> <pChEMBL_Value>
7.23

$$$$
CHEMBL3699598
  SciTegic08122012322D

 41 44  0  0  0  0            999 V2000
    3.8912   -5.2570    0.0000 C   0  0
    3.8933   -3.7570    0.0000 C   0  0
    2.5951   -3.0039    0.0000 C   0  0
    1.2948   -3.7516    0.0000 O   0  0
    2.5973   -1.5031    0.0000 N   0  0
    1.2990   -0.7500    0.0000 C   0  0
    1.2990    0.7500    0.0000 C   0  0
    0.0000    1.5000    0.0000 C   0  0
   -1.2990    0.7500    0.0000 C   0  0
   -1.2990   -0.7500    0.0000 C   0  0
   -2.5972   -1.5031    0.0000 O   0  0
   -2.5951   -3.0039    0.0000 C   0  0
   -1.2935   -3.7495    0.0000 N   0  0
   -1.2883   -5.2495    0.0000 C   0  0
    0.0125   -5.9981    0.0000 N   0  0
    0.0156   -7.4989    0.0000 C   0  0
   -1.2835   -8.2490    0.0000 C   0  0
   -1.2835   -9.7490    0.0000 C   0  0
    0.0156  -10.4990    0.0000 C   0  0
    0.0156  -11.9998    0.0000 N   0  0
   -1.2823  -12.7520    0.0000 C   0  0
   -1.2799  -14.2520    0.0000 C   0  0
    0.0203  -14.9999    0.0000 N   0  0
    0.0227  -16.5007    0.0000 S   0  0
    1.3232  -17.2482    0.0000 C   0  0
   -1.2746  -17.2536    0.0000 O   0  0
    0.0258  -18.0007    0.0000 O   0  0
    1.3182  -14.2478    0.0000 C   0  0
    1.3158  -12.7478    0.0000 C   0  0
    1.3146   -9.7490    0.0000 C   0  0
    1.3146   -8.2490    0.0000 C   0  0
    2.6159   -7.5013    0.0000 O   0  0
    3.9139   -8.2532    0.0000 C   0  0
   -2.5847   -6.0040    0.0000 N   0  0
   -3.8863   -5.2585    0.0000 C   0  0
   -3.8915   -3.7585    0.0000 C   0  0
   -5.1939   -3.0126    0.0000 C   0  0
   -6.4908   -3.7663    0.0000 F   0  0
   -5.1987   -1.5126    0.0000 F   0  0
   -6.4952   -2.2666    0.0000 F   0  0
    0.0000   -1.5000    0.0000 C   0  0
  1  2  2  0
  2  3  1  0
  3  4  2  0
  3  5  1  0
  5  6  1  0
  6  7  2  0
  7  8  1  0
  8  9  2  0
  9 10  1  0
 10 11  1  0
 11 12  1  0
 12 13  2  0
 13 14  1  0
 14 15  1  0
 15 16  1  0
 16 17  2  0
 17 18  1  0
 18 19  2  0
 19 20  1  0
 20 21  1  0
 21 22  1  0
 22 23  1  0
 23 24  1  0
 24 25  1  0
 24 26  2  0
 24 27  2  0
 23 28  1  0
 28 29  1  0
 29 20  1  0
 19 30  1  0
 30 31  2  0
 31 16  1  0
 31 32  1  0
 32 33  1  0
 14 34  2  0
 34 35  1  0
 35 36  2  0
 36 12  1  0
 36 37  1  0
 37 38  1  0
 37 39  1  0
 37 40  1  0
 10 41  2  0
 41  6  1  0
M  END
> <Name>
CHEMBL3699598

> <pChEMBL_Value>
7.19

$$$$
CHEMBL3699591
  SciTegic08122012322D

 39 42  0  0  0  0            999 V2000
    3.8912   -5.2570    0.0000 C   0  0
    3.8933   -3.7570    0.0000 C   0  0
    2.5951   -3.0039    0.0000 C   0  0
    1.2948   -3.7516    0.0000 O   0  0
    2.5973   -1.5031    0.0000 N   0  0
    1.2990   -0.7500    0.0000 C   0  0
    1.2990    0.7500    0.0000 C   0  0
    0.0000    1.5000    0.0000 C   0  0
   -1.2990    0.7500    0.0000 C   0  0
   -1.2990   -0.7500    0.0000 C   0  0
   -2.5972   -1.5031    0.0000 O   0  0
   -2.5951   -3.0039    0.0000 C   0  0
   -1.2935   -3.7495    0.0000 N   0  0
   -1.2883   -5.2495    0.0000 C   0  0
    0.0125   -5.9981    0.0000 N   0  0
    0.0156   -7.4989    0.0000 C   0  0
   -1.2835   -8.2490    0.0000 C   0  0
   -1.2835   -9.7490    0.0000 C   0  0
    0.0156  -10.4990    0.0000 C   0  0
    0.0156  -11.9998    0.0000 N   0  0
   -1.2823  -12.7520    0.0000 C   0  0
   -1.2799  -14.2520    0.0000 C   0  0
    0.0203  -14.9999    0.0000 O   0  0
    1.3182  -14.2478    0.0000 C   0  0
    1.3158  -12.7478    0.0000 C   0  0
    1.3146   -9.7490    0.0000 C   0  0
    1.3146   -8.2490    0.0000 C   0  0
    2.6159   -7.5013    0.0000 O   0  0
    3.9146   -8.2536    0.0000 C   0  0
    5.2152   -7.5063    0.0000 F   0  0
    3.9119   -9.7536    0.0000 F   0  0
   -2.5847   -6.0040    0.0000 N   0  0
   -3.8863   -5.2585    0.0000 C   0  0
   -3.8915   -3.7585    0.0000 C   0  0
   -5.1939   -3.0126    0.0000 C   0  0
   -6.4908   -3.7663    0.0000 F   0  0
   -5.1987   -1.5126    0.0000 F   0  0
   -6.4952   -2.2666    0.0000 F   0  0
    0.0000   -1.5000    0.0000 C   0  0
  1  2  2  0
  2  3  1  0
  3  4  2  0
  3  5  1  0
  5  6  1  0
  6  7  2  0
  7  8  1  0
  8  9  2  0
  9 10  1  0
 10 11  1  0
 11 12  1  0
 12 13  2  0
 13 14  1  0
 14 15  1  0
 15 16  1  0
 16 17  2  0
 17 18  1  0
 18 19  2  0
 19 20  1  0
 20 21  1  0
 21 22  1  0
 22 23  1  0
 23 24  1  0
 24 25  1  0
 25 20  1  0
 19 26  1  0
 26 27  2  0
 27 16  1  0
 27 28  1  0
 28 29  1  0
 29 30  1  0
 29 31  1  0
 14 32  2  0
 32 33  1  0
 33 34  2  0
 34 12  1  0
 34 35  1  0
 35 36  1  0
 35 37  1  0
 35 38  1  0
 10 39  2  0
 39  6  1  0
M  END
> <Name>
CHEMBL3699591

> <pChEMBL_Value>
7.19

$$$$
CHEMBL3973862
  SciTegic08122012322D

 32 34  0  0  0  0            999 V2000
    3.8912   -5.2570    0.0000 C   0  0
    3.8933   -3.7570    0.0000 C   0  0
    2.5951   -3.0039    0.0000 C   0  0
    1.2948   -3.7516    0.0000 O   0  0
    2.5973   -1.5031    0.0000 N   0  0
    1.2990   -0.7500    0.0000 C   0  0
    1.2990    0.7500    0.0000 C   0  0
    0.0000    1.5000    0.0000 C   0  0
   -1.2990    0.7500    0.0000 C   0  0
   -1.2990   -0.7500    0.0000 C   0  0
   -2.5972   -1.5031    0.0000 O   0  0
   -2.5951   -3.0039    0.0000 C   0  0
   -1.2935   -3.7495    0.0000 N   0  0
   -1.2883   -5.2495    0.0000 C   0  0
    0.0125   -5.9981    0.0000 N   0  0
    0.0156   -7.4989    0.0000 C   0  0
   -1.2835   -8.2490    0.0000 C   0  0
   -1.2835   -9.7490    0.0000 C   0  0
    0.0156  -10.4990    0.0000 C   0  0
    0.0125  -11.9999    0.0000 O   0  0
   -1.2876  -12.7480    0.0000 C   0  0
    1.3146   -9.7490    0.0000 C   0  0
    2.6159  -10.4968    0.0000 O   0  0
    3.9139   -9.7449    0.0000 C   0  0
    1.3146   -8.2490    0.0000 C   0  0
    2.6128   -7.4960    0.0000 O   0  0
    2.6108   -5.9960    0.0000 C   0  0
   -2.5847   -6.0040    0.0000 N   0  0
   -3.8863   -5.2585    0.0000 C   0  0
   -3.8915   -3.7585    0.0000 C   0  0
   -5.1932   -3.0130    0.0000 Br  0  0
    0.0000   -1.5000    0.0000 C   0  0
  1  2  2  0
  2  3  1  0
  3  4  2  0
  3  5  1  0
  5  6  1  0
  6  7  2  0
  7  8  1  0
  8  9  2  0
  9 10  1  0
 10 11  1  0
 11 12  1  0
 12 13  2  0
 13 14  1  0
 14 15  1  0
 15 16  1  0
 16 17  2  0
 17 18  1  0
 18 19  2  0
 19 20  1  0
 20 21  1  0
 19 22  1  0
 22 23  1  0
 23 24  1  0
 22 25  2  0
 25 16  1  0
 25 26  1  0
 26 27  1  0
 14 28  2  0
 28 29  1  0
 29 30  2  0
 30 12  1  0
 30 31  1  0
 10 32  2  0
 32  6  1  0
M  END
> <Name>
CHEMBL3973862

> <pChEMBL_Value>
7.19

$$$$
CHEMBL2381505
  SciTegic08122012322D

 57 62  0  0  0  0            999 V2000
    3.8912   -5.2570    0.0000 C   0  0
    3.8933   -3.7570    0.0000 C   0  0
    2.5951   -3.0039    0.0000 C   0  0
    1.2948   -3.7516    0.0000 O   0  0
    2.5973   -1.5031    0.0000 N   0  0
    1.2990   -0.7500    0.0000 C   0  0
    1.2990    0.7500    0.0000 C   0  0
    0.0000    1.5000    0.0000 C   0  0
   -1.2990    0.7500    0.0000 C   0  0
   -1.2990   -0.7500    0.0000 C   0  0
   -2.5972   -1.5031    0.0000 O   0  0
   -2.5951   -3.0039    0.0000 C   0  0
   -1.2935   -3.7495    0.0000 N   0  0
   -1.2883   -5.2495    0.0000 C   0  0
    0.0125   -5.9981    0.0000 N   0  0
    0.0156   -7.4989    0.0000 C   0  0
   -1.2835   -8.2490    0.0000 C   0  0
   -1.2835   -9.7490    0.0000 C   0  0
    0.0156  -10.4990    0.0000 C   0  0
    0.0156  -11.9998    0.0000 N   0  0
   -1.2823  -12.7520    0.0000 C   0  0
   -1.2799  -14.2520    0.0000 C   0  0
    0.0203  -14.9999    0.0000 N   0  0
    0.0258  -16.5007    0.0000 C   0  0
    1.3278  -17.2472    0.0000 C   0  0
    2.6244  -16.4929    0.0000 O   0  0
    1.3333  -18.7480    0.0000 N   0  0
    2.6353  -19.4945    0.0000 C   0  0
    2.6408  -20.9953    0.0000 C   0  0
    1.3443  -21.7496    0.0000 C   0  0
    3.9428  -21.7418    0.0000 O   0  0
    3.9483  -23.2426    0.0000 C   0  0
    2.7361  -24.1044    0.0000 N   0  0
    3.2019  -25.5302    0.0000 O   0  0
    4.7019  -25.5278    0.0000 N   0  3
    5.5855  -26.7400    0.0000 O   0  5
    5.1631  -24.1005    0.0000 C   0  0
    6.5836  -23.6244    0.0000 S   0  0
    6.8814  -22.1542    0.0000 O   0  0
    5.4595  -22.6313    0.0000 O   0  0
    7.7089  -24.6175    0.0000 C   0  0
    7.4116  -26.0877    0.0000 C   0  0
    8.5363  -27.0803    0.0000 C   0  0
    9.9582  -26.6026    0.0000 C   0  0
   10.2555  -25.1323    0.0000 C   0  0
    9.1308  -24.1398    0.0000 C   0  0
    1.3182  -14.2478    0.0000 C   0  0
    1.3158  -12.7478    0.0000 C   0  0
    1.3146   -9.7490    0.0000 C   0  0
    1.3146   -8.2490    0.0000 C   0  0
    2.6159   -7.5013    0.0000 O   0  0
    3.9139   -8.2532    0.0000 C   0  0
   -2.5847   -6.0040    0.0000 N   0  0
   -3.8863   -5.2585    0.0000 C   0  0
   -3.8915   -3.7585    0.0000 C   0  0
   -5.1932   -3.0130    0.0000 Cl  0  0
    0.0000   -1.5000    0.0000 C   0  0
  1  2  2  0
  2  3  1  0
  3  4  2  0
  3  5  1  0
  5  6  1  0
  6  7  2  0
  7  8  1  0
  8  9  2  0
  9 10  1  0
 10 11  1  0
 11 12  1  0
 12 13  2  0
 13 14  1  0
 14 15  1  0
 15 16  1  0
 16 17  2  0
 17 18  1  0
 18 19  2  0
 19 20  1  0
 20 21  1  0
 21 22  1  0
 22 23  1  0
 23 24  1  0
 24 25  1  0
 25 26  2  0
 25 27  1  0
 27 28  1  0
 28 29  1  0
 29 30  1  0
 29 31  1  0
 31 32  1  0
 32 33  2  0
 33 34  1  0
 34 35  1  0
 35 36  1  0
 35 37  2  0
 37 32  1  0
 37 38  1  0
 38 39  2  0
 38 40  2  0
 38 41  1  0
 41 42  2  0
 42 43  1  0
 43 44  2  0
 44 45  1  0
 45 46  2  0
 46 41  1  0
 23 47  1  0
 47 48  1  0
 48 20  1  0
 19 49  1  0
 49 50  2  0
 50 16  1  0
 50 51  1  0
 51 52  1  0
 14 53  2  0
 53 54  1  0
 54 55  2  0
 55 12  1  0
 55 56  1  0
 10 57  2  0
 57  6  1  0
M  CHG  2  35   1  36  -1
M  END
> <Name>
CHEMBL2381505

> <pChEMBL_Value>
7.14

$$$$
CHEMBL3798501
  SciTegic08122012322D

 38 41  0  0  0  0            999 V2000
    3.8912   -5.2570    0.0000 C   0  0
    3.8933   -3.7570    0.0000 C   0  0
    2.5951   -3.0039    0.0000 C   0  0
    1.2948   -3.7516    0.0000 O   0  0
    2.5973   -1.5031    0.0000 N   0  0
    1.2990   -0.7500    0.0000 C   0  0
    1.2990    0.7500    0.0000 C   0  0
    0.0000    1.5000    0.0000 C   0  0
   -1.2990    0.7500    0.0000 C   0  0
   -1.2990   -0.7500    0.0000 C   0  0
   -2.5972   -1.5031    0.0000 O   0  0
   -2.5951   -3.0039    0.0000 C   0  0
   -1.2935   -3.7495    0.0000 N   0  0
   -1.2883   -5.2495    0.0000 C   0  0
    0.0125   -5.9981    0.0000 N   0  0
    0.0156   -7.4989    0.0000 C   0  0
   -1.2835   -8.2490    0.0000 C   0  0
   -1.2835   -9.7490    0.0000 C   0  0
    0.0156  -10.4990    0.0000 C   0  0
    0.0156  -11.9998    0.0000 N   0  0
   -1.2823  -12.7520    0.0000 C   0  0
   -1.2799  -14.2520    0.0000 C   0  0
    0.0203  -14.9999    0.0000 N   0  0
    0.0258  -16.5007    0.0000 C   0  0
   -1.2707  -17.2550    0.0000 C   0  0
    1.3271  -17.2468    0.0000 O   0  0
    1.3182  -14.2478    0.0000 C   0  0
    1.3158  -12.7478    0.0000 C   0  0
    1.3146   -9.7490    0.0000 C   0  0
    1.3146   -8.2490    0.0000 C   0  0
    2.6159   -7.5013    0.0000 O   0  0
    3.9139   -8.2532    0.0000 C   0  0
   -2.5847   -6.0040    0.0000 N   0  0
   -3.8863   -5.2585    0.0000 C   0  0
   -3.8915   -3.7585    0.0000 C   0  0
   -5.1954   -3.0153    0.0000 S   0  0
   -6.4908   -3.7717    0.0000 C   0  0
    0.0000   -1.5000    0.0000 C   0  0
  1  2  2  0
  2  3  1  0
  3  4  2  0
  3  5  1  0
  5  6  1  0
  6  7  2  0
  7  8  1  0
  8  9  2  0
  9 10  1  0
 10 11  1  0
 11 12  1  0
 12 13  2  0
 13 14  1  0
 14 15  1  0
 15 16  1  0
 16 17  2  0
 17 18  1  0
 18 19  2  0
 19 20  1  0
 20 21  1  0
 21 22  1  0
 22 23  1  0
 23 24  1  0
 24 25  1  0
 24 26  2  0
 23 27  1  0
 27 28  1  0
 28 20  1  0
 19 29  1  0
 29 30  2  0
 30 16  1  0
 30 31  1  0
 31 32  1  0
 14 33  2  0
 33 34  1  0
 34 35  2  0
 35 12  1  0
 35 36  1  0
 36 37  1  0
 10 38  2  0
 38  6  1  0
M  END
> <Name>
CHEMBL3798501

> <pChEMBL_Value>
7.06

$$$$
CHEMBL4081703
  SciTegic08122012322D

 36 39  0  0  0  0            999 V2000
    3.8912   -5.2570    0.0000 C   0  0
    3.8933   -3.7570    0.0000 C   0  0
    2.5951   -3.0039    0.0000 C   0  0
    1.2948   -3.7516    0.0000 O   0  0
    2.5973   -1.5031    0.0000 N   0  0
    1.2990   -0.7500    0.0000 C   0  0
    1.2990    0.7500    0.0000 C   0  0
    0.0000    1.5000    0.0000 C   0  0
   -1.2990    0.7500    0.0000 C   0  0
   -1.2990   -0.7500    0.0000 C   0  0
   -2.5972   -1.5031    0.0000 O   0  0
   -2.5951   -3.0039    0.0000 C   0  0
   -1.2935   -3.7495    0.0000 N   0  0
   -1.2883   -5.2495    0.0000 C   0  0
    0.0125   -5.9981    0.0000 N   0  0
    0.0156   -7.4989    0.0000 C   0  0
    1.3146   -8.2490    0.0000 C   0  0
    1.3146   -9.7490    0.0000 C   0  0
    0.0156  -10.4990    0.0000 C   0  0
    0.0125  -11.9999    0.0000 C   0  0
   -1.2883  -12.7484    0.0000 C   0  0
   -1.2914  -14.2492    0.0000 C   0  0
   -2.5905  -14.9993    0.0000 C   0  0
   -2.5905  -16.4993    0.0000 C   0  0
   -3.8896  -17.2493    0.0000 C   0  0
   -1.2915  -17.2493    0.0000 C   0  0
    0.0076  -16.4994    0.0000 C   0  0
    1.3066  -17.2494    0.0000 C   0  0
    0.0076  -14.9994    0.0000 C   0  0
   -1.2835   -9.7490    0.0000 C   0  0
   -1.2835   -8.2490    0.0000 C   0  0
   -2.5847   -6.0040    0.0000 N   0  0
   -3.8863   -5.2585    0.0000 C   0  0
   -3.8915   -3.7585    0.0000 C   0  0
   -5.1932   -3.0130    0.0000 Cl  0  0
    0.0000   -1.5000    0.0000 C   0  0
  1  2  2  0
  2  3  1  0
  3  4  2  0
  3  5  1  0
  5  6  1  0
  6  7  2  0
  7  8  1  0
  8  9  2  0
  9 10  1  0
 10 11  1  0
 11 12  1  0
 12 13  2  0
 13 14  1  0
 14 15  1  0
 15 16  1  0
 16 17  2  0
 17 18  1  0
 18 19  2  0
 19 20  1  0
 20 21  2  0
 21 22  1  0
 22 23  2  0
 23 24  1  0
 24 25  1  0
 24 26  2  0
 26 27  1  0
 27 28  1  0
 27 29  2  0
 29 22  1  0
 19 30  1  0
 30 31  2  0
 31 16  1  0
 14 32  2  0
 32 33  1  0
 33 34  2  0
 34 12  1  0
 34 35  1  0
 10 36  2  0
 36  6  1  0
M  END
> <Name>
CHEMBL4081703

> <pChEMBL_Value>
7.06

$$$$
CHEMBL4212450
  SciTegic08122012322D

 35 38  0  0  0  0            999 V2000
    3.8983   -0.7459    0.0000 C   0  0
    2.6003   -1.4977    0.0000 O   0  0
    1.2990   -0.7500    0.0000 C   0  0
    1.2990    0.7500    0.0000 C   0  0
    0.0000    1.5000    0.0000 C   0  0
    0.0000    3.0008    0.0000 N   0  0
    1.2978    3.7529    0.0000 C   0  0
    1.2954    5.2529    0.0000 C   0  0
   -0.0048    6.0009    0.0000 N   0  0
   -0.0072    7.5009    0.0000 C   0  0
   -1.3026    5.2488    0.0000 C   0  0
   -1.3002    3.7488    0.0000 C   0  0
   -1.2990    0.7500    0.0000 C   0  0
   -1.2990   -0.7500    0.0000 C   0  0
    0.0000   -1.5000    0.0000 C   0  0
   -0.0031   -3.0008    0.0000 N   0  0
   -1.3039   -3.7494    0.0000 C   0  0
   -1.3092   -5.2494    0.0000 N   0  0
   -2.6108   -5.9949    0.0000 C   0  0
   -3.9072   -5.2404    0.0000 C   0  0
   -5.2089   -5.9859    0.0000 Cl  0  0
   -3.9020   -3.7404    0.0000 C   0  0
   -5.1977   -2.9829    0.0000 O   0  0
   -5.1903   -1.4821    0.0000 C   0  0
   -3.8861   -0.7410    0.0000 C   0  0
   -3.8758    0.7590    0.0000 C   0  0
   -5.1696    1.5179    0.0000 C   0  0
   -6.4738    0.7769    0.0000 C   0  0
   -6.4841   -0.7230    0.0000 C   0  0
   -7.7906   -1.4617    0.0000 N   0  0
   -9.0840   -0.7004    0.0000 C   0  0
   -9.0710    0.7995    0.0000 O   0  0
  -10.3905   -1.4391    0.0000 C   0  0
  -11.6832   -0.6783    0.0000 O   0  0
   -2.6004   -2.9949    0.0000 N   0  0
  1  2  1  0
  2  3  1  0
  3  4  2  0
  4  5  1  0
  5  6  1  0
  6  7  1  0
  7  8  1  0
  8  9  1  0
  9 10  1  0
  9 11  1  0
 11 12  1  0
 12  6  1  0
  5 13  2  0
 13 14  1  0
 14 15  2  0
 15  3  1  0
 15 16  1  0
 16 17  1  0
 17 18  2  0
 18 19  1  0
 19 20  2  0
 20 21  1  0
 20 22  1  0
 22 23  1  0
 23 24  1  0
 24 25  2  0
 25 26  1  0
 26 27  2  0
 27 28  1  0
 28 29  2  0
 29 24  1  0
 29 30  1  0
 30 31  1  0
 31 32  2  0
 31 33  1  0
 33 34  1  0
 22 35  2  0
 35 17  1  0
M  END
> <Name>
CHEMBL4212450

> <pChEMBL_Value>
7.00

$$$$
CHEMBL2381507
  SciTegic08122012322D

 57 62  0  0  0  0            999 V2000
    3.8912   -5.2570    0.0000 C   0  0
    3.8933   -3.7570    0.0000 C   0  0
    2.5951   -3.0039    0.0000 C   0  0
    1.2948   -3.7516    0.0000 O   0  0
    2.5973   -1.5031    0.0000 N   0  0
    1.2990   -0.7500    0.0000 C   0  0
    1.2990    0.7500    0.0000 C   0  0
    0.0000    1.5000    0.0000 C   0  0
   -1.2990    0.7500    0.0000 C   0  0
   -1.2990   -0.7500    0.0000 C   0  0
   -2.5972   -1.5031    0.0000 O   0  0
   -2.5951   -3.0039    0.0000 C   0  0
   -1.2935   -3.7495    0.0000 N   0  0
   -1.2883   -5.2495    0.0000 C   0  0
    0.0125   -5.9981    0.0000 N   0  0
    0.0156   -7.4989    0.0000 C   0  0
   -1.2835   -8.2490    0.0000 C   0  0
   -1.2835   -9.7490    0.0000 C   0  0
    0.0156  -10.4990    0.0000 C   0  0
    0.0156  -11.9998    0.0000 N   0  0
   -1.2823  -12.7520    0.0000 C   0  0
   -1.2799  -14.2520    0.0000 C   0  0
    0.0203  -14.9999    0.0000 N   0  0
    0.0258  -16.5007    0.0000 C   0  0
    1.3278  -17.2472    0.0000 C   0  0
    2.6244  -16.4929    0.0000 O   0  0
    1.3333  -18.7480    0.0000 O   0  0
    2.6353  -19.4945    0.0000 C   0  0
    2.6408  -20.9953    0.0000 C   0  0
    3.9428  -21.7418    0.0000 C   0  0
    3.9483  -23.2426    0.0000 O   0  0
    5.2503  -23.9891    0.0000 C   0  0
    6.5985  -23.3612    0.0000 N   0  0
    7.6078  -24.4709    0.0000 O   0  0
    6.8644  -25.7737    0.0000 N   0  3
    7.4815  -27.1409    0.0000 O   0  5
    5.3957  -25.4692    0.0000 C   0  0
    4.2797  -26.4688    0.0000 S   0  0
    2.8545  -26.0011    0.0000 O   0  0
    3.9719  -25.0007    0.0000 O   0  0
    4.5869  -27.9379    0.0000 C   0  0
    3.4689  -28.9379    0.0000 C   0  0
    3.7759  -30.4061    0.0000 C   0  0
    5.2010  -30.8743    0.0000 C   0  0
    6.3190  -29.8743    0.0000 C   0  0
    6.0120  -28.4061    0.0000 C   0  0
    1.3182  -14.2478    0.0000 C   0  0
    1.3158  -12.7478    0.0000 C   0  0
    1.3146   -9.7490    0.0000 C   0  0
    1.3146   -8.2490    0.0000 C   0  0
    2.6159   -7.5013    0.0000 O   0  0
    3.9139   -8.2532    0.0000 C   0  0
   -2.5847   -6.0040    0.0000 N   0  0
   -3.8863   -5.2585    0.0000 C   0  0
   -3.8915   -3.7585    0.0000 C   0  0
   -5.1932   -3.0130    0.0000 Cl  0  0
    0.0000   -1.5000    0.0000 C   0  0
  1  2  2  0
  2  3  1  0
  3  4  2  0
  3  5  1  0
  5  6  1  0
  6  7  2  0
  7  8  1  0
  8  9  2  0
  9 10  1  0
 10 11  1  0
 11 12  1  0
 12 13  2  0
 13 14  1  0
 14 15  1  0
 15 16  1  0
 16 17  2  0
 17 18  1  0
 18 19  2  0
 19 20  1  0
 20 21  1  0
 21 22  1  0
 22 23  1  0
 23 24  1  0
 24 25  1  0
 25 26  2  0
 25 27  1  0
 27 28  1  0
 28 29  1  0
 29 30  1  0
 30 31  1  0
 31 32  1  0
 32 33  2  0
 33 34  1  0
 34 35  1  0
 35 36  1  0
 35 37  2  0
 37 32  1  0
 37 38  1  0
 38 39  2  0
 38 40  2  0
 38 41  1  0
 41 42  2  0
 42 43  1  0
 43 44  2  0
 44 45  1  0
 45 46  2  0
 46 41  1  0
 23 47  1  0
 47 48  1  0
 48 20  1  0
 19 49  1  0
 49 50  2  0
 50 16  1  0
 50 51  1  0
 51 52  1  0
 14 53  2  0
 53 54  1  0
 54 55  2  0
 55 12  1  0
 55 56  1  0
 10 57  2  0
 57  6  1  0
M  CHG  2  35   1  36  -1
M  END
> <Name>
CHEMBL2381507

> <pChEMBL_Value>
7.00

$$$$
CHEMBL2381510
  SciTegic08122012322D

 59 64  0  0  0  0            999 V2000
    3.8912   -5.2570    0.0000 C   0  0
    3.8933   -3.7570    0.0000 C   0  0
    2.5951   -3.0039    0.0000 C   0  0
    1.2948   -3.7516    0.0000 O   0  0
    2.5973   -1.5031    0.0000 N   0  0
    1.2990   -0.7500    0.0000 C   0  0
    1.2990    0.7500    0.0000 C   0  0
    0.0000    1.5000    0.0000 C   0  0
   -1.2990    0.7500    0.0000 C   0  0
   -1.2990   -0.7500    0.0000 C   0  0
   -2.5972   -1.5031    0.0000 O   0  0
   -2.5951   -3.0039    0.0000 C   0  0
   -1.2935   -3.7495    0.0000 N   0  0
   -1.2883   -5.2495    0.0000 C   0  0
    0.0125   -5.9981    0.0000 N   0  0
    0.0156   -7.4989    0.0000 C   0  0
   -1.2835   -8.2490    0.0000 C   0  0
   -1.2835   -9.7490    0.0000 C   0  0
    0.0156  -10.4990    0.0000 C   0  0
    0.0156  -11.9998    0.0000 N   0  0
   -1.2823  -12.7520    0.0000 C   0  0
   -1.2799  -14.2520    0.0000 C   0  0
    0.0203  -14.9999    0.0000 N   0  0
    0.0258  -16.5007    0.0000 C   0  0
    1.3278  -17.2472    0.0000 C   0  0
    2.6244  -16.4929    0.0000 O   0  0
    1.3333  -18.7480    0.0000 O   0  0
    2.6353  -19.4945    0.0000 C   0  0
    2.6408  -20.9953    0.0000 C   0  0
    3.9428  -21.7418    0.0000 O   0  0
    3.9483  -23.2426    0.0000 C   0  0
    5.2503  -23.9891    0.0000 C   0  0
    5.2558  -25.4899    0.0000 O   0  0
    6.5578  -26.2364    0.0000 C   0  0
    7.9060  -25.6085    0.0000 N   0  0
    8.9153  -26.7182    0.0000 O   0  0
    8.1719  -28.0210    0.0000 N   0  3
    8.7890  -29.3882    0.0000 O   0  5
    6.7031  -27.7165    0.0000 C   0  0
    5.5872  -28.7161    0.0000 S   0  0
    4.1620  -28.2484    0.0000 O   0  0
    5.2794  -27.2480    0.0000 O   0  0
    5.8944  -30.1852    0.0000 C   0  0
    4.7764  -31.1852    0.0000 C   0  0
    5.0834  -32.6534    0.0000 C   0  0
    6.5085  -33.1216    0.0000 C   0  0
    7.6265  -32.1216    0.0000 C   0  0
    7.3194  -30.6534    0.0000 C   0  0
    1.3182  -14.2478    0.0000 C   0  0
    1.3158  -12.7478    0.0000 C   0  0
    1.3146   -9.7490    0.0000 C   0  0
    1.3146   -8.2490    0.0000 C   0  0
    2.6159   -7.5013    0.0000 O   0  0
    3.9139   -8.2532    0.0000 C   0  0
   -2.5847   -6.0040    0.0000 N   0  0
   -3.8863   -5.2585    0.0000 C   0  0
   -3.8915   -3.7585    0.0000 C   0  0
   -5.1932   -3.0130    0.0000 Cl  0  0
    0.0000   -1.5000    0.0000 C   0  0
  1  2  2  0
  2  3  1  0
  3  4  2  0
  3  5  1  0
  5  6  1  0
  6  7  2  0
  7  8  1  0
  8  9  2  0
  9 10  1  0
 10 11  1  0
 11 12  1  0
 12 13  2  0
 13 14  1  0
 14 15  1  0
 15 16  1  0
 16 17  2  0
 17 18  1  0
 18 19  2  0
 19 20  1  0
 20 21  1  0
 21 22  1  0
 22 23  1  0
 23 24  1  0
 24 25  1  0
 25 26  2  0
 25 27  1  0
 27 28  1  0
 28 29  1  0
 29 30  1  0
 30 31  1  0
 31 32  1  0
 32 33  1  0
 33 34  1  0
 34 35  2  0
 35 36  1  0
 36 37  1  0
 37 38  1  0
 37 39  2  0
 39 34  1  0
 39 40  1  0
 40 41  2  0
 40 42  2  0
 40 43  1  0
 43 44  2  0
 44 45  1  0
 45 46  2  0
 46 47  1  0
 47 48  2  0
 48 43  1  0
 23 49  1  0
 49 50  1  0
 50 20  1  0
 19 51  1  0
 51 52  2  0
 52 16  1  0
 52 53  1  0
 53 54  1  0
 14 55  2  0
 55 56  1  0
 56 57  2  0
 57 12  1  0
 57 58  1  0
 10 59  2  0
 59  6  1  0
M  CHG  2  37   1  38  -1
M  END
> <Name>
CHEMBL2381510

> <pChEMBL_Value>
7.00

$$$$
CHEMBL4277822
  SciTegic08122012322D

 35 38  0  0  0  0            999 V2000
    3.8912   -5.2570    0.0000 C   0  0
    3.8933   -3.7570    0.0000 C   0  0
    2.5951   -3.0039    0.0000 C   0  0
    1.2948   -3.7516    0.0000 O   0  0
    2.5973   -1.5031    0.0000 N   0  0
    1.2990   -0.7500    0.0000 C   0  0
    1.2990    0.7500    0.0000 C   0  0
    0.0000    1.5000    0.0000 C   0  0
   -1.2990    0.7500    0.0000 C   0  0
   -1.2990   -0.7500    0.0000 C   0  0
   -2.5972   -1.5031    0.0000 O   0  0
   -2.5951   -3.0039    0.0000 C   0  0
   -1.2935   -3.7495    0.0000 N   0  0
   -1.2883   -5.2495    0.0000 C   0  0
    0.0125   -5.9981    0.0000 N   0  0
    0.0156   -7.4989    0.0000 C   0  0
    1.3146   -8.2490    0.0000 C   0  0
    1.3146   -9.7490    0.0000 C   0  0
    0.0156  -10.4990    0.0000 C   0  0
    0.0125  -11.9999    0.0000 C   0  0
   -1.2883  -12.7484    0.0000 C   0  0
   -2.5861  -11.9962    0.0000 O   0  0
   -1.2914  -14.2492    0.0000 N   0  0
   -2.5905  -14.9993    0.0000 C   0  0
   -2.5905  -16.4993    0.0000 C   0  0
   -1.2915  -17.2493    0.0000 O   0  0
    0.0076  -16.4994    0.0000 C   0  0
    0.0076  -14.9994    0.0000 C   0  0
   -1.2835   -9.7490    0.0000 C   0  0
   -1.2835   -8.2490    0.0000 C   0  0
   -2.5847   -6.0040    0.0000 N   0  0
   -3.8863   -5.2585    0.0000 C   0  0
   -3.8915   -3.7585    0.0000 C   0  0
   -5.1932   -3.0130    0.0000 Cl  0  0
    0.0000   -1.5000    0.0000 C   0  0
  1  2  2  0
  2  3  1  0
  3  4  2  0
  3  5  1  0
  5  6  1  0
  6  7  2  0
  7  8  1  0
  8  9  2  0
  9 10  1  0
 10 11  1  0
 11 12  1  0
 12 13  2  0
 13 14  1  0
 14 15  1  0
 15 16  1  0
 16 17  2  0
 17 18  1  0
 18 19  2  0
 19 20  1  0
 20 21  1  0
 21 22  2  0
 21 23  1  0
 23 24  1  0
 24 25  1  0
 25 26  1  0
 26 27  1  0
 27 28  1  0
 28 23  1  0
 19 29  1  0
 29 30  2  0
 30 16  1  0
 14 31  2  0
 31 32  1  0
 32 33  2  0
 33 12  1  0
 33 34  1  0
 10 35  2  0
 35  6  1  0
M  END
> <Name>
CHEMBL4277822

> <pChEMBL_Value>
7.00

$$$$
CHEMBL2408828
  SciTegic08122012322D

 47 52  0  0  0  0            999 V2000
    1.3097   -0.7480    0.0000 C   0  0
    2.6046   -1.5052    0.0000 O   0  0
    2.5973   -3.0060    0.0000 C   0  0
    3.8942   -3.7597    0.0000 C   0  0
    3.8899   -5.2597    0.0000 C   0  0
    5.1874   -6.0137    0.0000 N   0  0
    6.4899   -5.2696    0.0000 C   0  0
    7.7856   -6.0253    0.0000 C   0  0
    7.7789   -7.5253    0.0000 N   0  0
    9.0746   -8.2811    0.0000 C   0  0
    6.4766   -8.2695    0.0000 C   0  0
    5.1809   -7.5138    0.0000 C   0  0
    2.5887   -6.0060    0.0000 C   0  0
    1.2918   -5.2523    0.0000 C   0  0
    1.2961   -3.7523    0.0000 C   0  0
   -0.0031   -3.0008    0.0000 N   0  0
   -1.3039   -3.7494    0.0000 C   0  0
   -1.3092   -5.2494    0.0000 N   0  0
   -2.6108   -5.9949    0.0000 C   0  0
   -3.9072   -5.2404    0.0000 C   0  0
   -5.2089   -5.9859    0.0000 Cl  0  0
   -3.9020   -3.7404    0.0000 C   0  0
   -5.1977   -2.9829    0.0000 O   0  0
   -6.5020   -3.7253    0.0000 C   0  0
   -7.7980   -2.9700    0.0000 C   0  0
   -9.1001   -3.7147    0.0000 C   0  0
   -9.1063   -5.2147    0.0000 C   0  0
   -7.8103   -5.9700    0.0000 C   0  0
   -7.8134   -7.4708    0.0000 C   0  0
   -6.5157   -8.2247    0.0000 O   0  0
   -6.5188   -9.7256    0.0000 C   0  0
   -7.7358  -10.5804    0.0000 N   0  0
   -7.2782  -12.0089    0.0000 O   0  0
   -5.7782  -12.0150    0.0000 N   0  3
   -4.9015  -13.2322    0.0000 O   0  5
   -5.3088  -10.5903    0.0000 C   0  0
   -3.8856  -10.1223    0.0000 S   0  0
   -3.5795   -8.6539    0.0000 O   0  0
   -5.0041   -9.1228    0.0000 O   0  0
   -2.7660  -11.1218    0.0000 C   0  0
   -1.3414  -10.6522    0.0000 C   0  0
   -0.2225  -11.6512    0.0000 C   0  0
   -0.5281  -13.1197    0.0000 C   0  0
   -1.9527  -13.5893    0.0000 C   0  0
   -3.0717  -12.5903    0.0000 C   0  0
   -6.5082   -5.2253    0.0000 C   0  0
   -2.6004   -2.9949    0.0000 N   0  0
  1  2  1  0
  2  3  1  0
  3  4  2  0
  4  5  1  0
  5  6  1  0
  6  7  1  0
  7  8  1  0
  8  9  1  0
  9 10  1  0
  9 11  1  0
 11 12  1  0
 12  6  1  0
  5 13  2  0
 13 14  1  0
 14 15  2  0
 15  3  1  0
 15 16  1  0
 16 17  1  0
 17 18  2  0
 18 19  1  0
 19 20  2  0
 20 21  1  0
 20 22  1  0
 22 23  1  0
 23 24  1  0
 24 25  2  0
 25 26  1  0
 26 27  2  0
 27 28  1  0
 28 29  1  0
 29 30  1  0
 30 31  1  0
 31 32  2  0
 32 33  1  0
 33 34  1  0
 34 35  1  0
 34 36  2  0
 36 31  1  0
 36 37  1  0
 37 38  2  0
 37 39  2  0
 37 40  1  0
 40 41  2  0
 41 42  1  0
 42 43  2  0
 43 44  1  0
 44 45  2  0
 45 40  1  0
 28 46  2  0
 46 24  1  0
 22 47  2  0
 47 17  1  0
M  CHG  2  34   1  35  -1
M  END
> <Name>
CHEMBL2408828

> <pChEMBL_Value>
6.89

$$$$
CHEMBL3800597
  SciTegic08122012322D

 39 42  0  0  0  0            999 V2000
    3.8912   -5.2570    0.0000 C   0  0
    3.8933   -3.7570    0.0000 C   0  0
    2.5951   -3.0039    0.0000 C   0  0
    1.2948   -3.7516    0.0000 O   0  0
    2.5973   -1.5031    0.0000 N   0  0
    1.2990   -0.7500    0.0000 C   0  0
    1.2990    0.7500    0.0000 C   0  0
    0.0000    1.5000    0.0000 C   0  0
   -1.2990    0.7500    0.0000 C   0  0
   -1.2990   -0.7500    0.0000 C   0  0
   -2.5972   -1.5031    0.0000 O   0  0
   -2.5951   -3.0039    0.0000 C   0  0
   -1.2935   -3.7495    0.0000 N   0  0
   -1.2883   -5.2495    0.0000 C   0  0
    0.0125   -5.9981    0.0000 N   0  0
    0.0156   -7.4989    0.0000 C   0  0
   -1.2835   -8.2490    0.0000 C   0  0
   -1.2835   -9.7490    0.0000 C   0  0
    0.0156  -10.4990    0.0000 C   0  0
    0.0156  -11.9998    0.0000 N   0  0
   -1.2823  -12.7520    0.0000 C   0  0
   -1.2799  -14.2520    0.0000 C   0  0
    0.0203  -14.9999    0.0000 N   0  0
    0.0258  -16.5007    0.0000 C   0  0
   -1.2707  -17.2550    0.0000 O   0  0
    1.3278  -17.2472    0.0000 C   0  0
    1.3333  -18.7472    0.0000 C   0  0
    1.3182  -14.2478    0.0000 C   0  0
    1.3158  -12.7478    0.0000 C   0  0
    1.3146   -9.7490    0.0000 C   0  0
    1.3146   -8.2490    0.0000 C   0  0
    2.6159   -7.5013    0.0000 O   0  0
    3.9139   -8.2532    0.0000 C   0  0
   -2.5847   -6.0040    0.0000 N   0  0
   -3.8863   -5.2585    0.0000 C   0  0
   -3.8915   -3.7585    0.0000 C   0  0
   -5.1954   -3.0153    0.0000 S   0  0
   -6.4908   -3.7717    0.0000 C   0  0
    0.0000   -1.5000    0.0000 C   0  0
  1  2  2  0
  2  3  1  0
  3  4  2  0
  3  5  1  0
  5  6  1  0
  6  7  2  0
  7  8  1  0
  8  9  2  0
  9 10  1  0
 10 11  1  0
 11 12  1  0
 12 13  2  0
 13 14  1  0
 14 15  1  0
 15 16  1  0
 16 17  2  0
 17 18  1  0
 18 19  2  0
 19 20  1  0
 20 21  1  0
 21 22  1  0
 22 23  1  0
 23 24  1  0
 24 25  2  0
 24 26  1  0
 26 27  1  0
 23 28  1  0
 28 29  1  0
 29 20  1  0
 19 30  1  0
 30 31  2  0
 31 16  1  0
 31 32  1  0
 32 33  1  0
 14 34  2  0
 34 35  1  0
 35 36  2  0
 36 12  1  0
 36 37  1  0
 37 38  1  0
 10 39  2  0
 39  6  1  0
M  END
> <Name>
CHEMBL3800597

> <pChEMBL_Value>
6.81

$$$$
CHEMBL2381508
  SciTegic08122012322D

 58 63  0  0  0  0            999 V2000
    3.8912   -5.2570    0.0000 C   0  0
    3.8933   -3.7570    0.0000 C   0  0
    2.5951   -3.0039    0.0000 C   0  0
    1.2948   -3.7516    0.0000 O   0  0
    2.5973   -1.5031    0.0000 N   0  0
    1.2990   -0.7500    0.0000 C   0  0
    1.2990    0.7500    0.0000 C   0  0
    0.0000    1.5000    0.0000 C   0  0
   -1.2990    0.7500    0.0000 C   0  0
   -1.2990   -0.7500    0.0000 C   0  0
   -2.5972   -1.5031    0.0000 O   0  0
   -2.5951   -3.0039    0.0000 C   0  0
   -1.2935   -3.7495    0.0000 N   0  0
   -1.2883   -5.2495    0.0000 C   0  0
    0.0125   -5.9981    0.0000 N   0  0
    0.0156   -7.4989    0.0000 C   0  0
   -1.2835   -8.2490    0.0000 C   0  0
   -1.2835   -9.7490    0.0000 C   0  0
    0.0156  -10.4990    0.0000 C   0  0
    0.0156  -11.9998    0.0000 N   0  0
   -1.2823  -12.7520    0.0000 C   0  0
   -1.2799  -14.2520    0.0000 C   0  0
    0.0203  -14.9999    0.0000 N   0  0
    0.0258  -16.5007    0.0000 C   0  0
    1.3278  -17.2472    0.0000 C   0  0
    2.6244  -16.4929    0.0000 O   0  0
    1.3333  -18.7480    0.0000 O   0  0
    2.6353  -19.4945    0.0000 C   0  0
    2.6408  -20.9953    0.0000 C   0  0
    3.9428  -21.7418    0.0000 C   0  0
    3.9483  -23.2426    0.0000 C   0  0
    5.2503  -23.9891    0.0000 O   0  0
    5.2558  -25.4899    0.0000 C   0  0
    4.0436  -26.3517    0.0000 N   0  0
    4.5094  -27.7775    0.0000 O   0  0
    6.0094  -27.7751    0.0000 N   0  3
    6.8930  -28.9873    0.0000 O   0  5
    6.4706  -26.3478    0.0000 C   0  0
    7.8911  -25.8717    0.0000 S   0  0
    8.1889  -24.4015    0.0000 O   0  0
    6.7670  -24.8786    0.0000 O   0  0
    9.0164  -26.8648    0.0000 C   0  0
    8.7191  -28.3350    0.0000 C   0  0
    9.8438  -29.3276    0.0000 C   0  0
   11.2657  -28.8499    0.0000 C   0  0
   11.5629  -27.3796    0.0000 C   0  0
   10.4383  -26.3871    0.0000 C   0  0
    1.3182  -14.2478    0.0000 C   0  0
    1.3158  -12.7478    0.0000 C   0  0
    1.3146   -9.7490    0.0000 C   0  0
    1.3146   -8.2490    0.0000 C   0  0
    2.6159   -7.5013    0.0000 O   0  0
    3.9139   -8.2532    0.0000 C   0  0
   -2.5847   -6.0040    0.0000 N   0  0
   -3.8863   -5.2585    0.0000 C   0  0
   -3.8915   -3.7585    0.0000 C   0  0
   -5.1932   -3.0130    0.0000 Cl  0  0
    0.0000   -1.5000    0.0000 C   0  0
  1  2  2  0
  2  3  1  0
  3  4  2  0
  3  5  1  0
  5  6  1  0
  6  7  2  0
  7  8  1  0
  8  9  2  0
  9 10  1  0
 10 11  1  0
 11 12  1  0
 12 13  2  0
 13 14  1  0
 14 15  1  0
 15 16  1  0
 16 17  2  0
 17 18  1  0
 18 19  2  0
 19 20  1  0
 20 21  1  0
 21 22  1  0
 22 23  1  0
 23 24  1  0
 24 25  1  0
 25 26  2  0
 25 27  1  0
 27 28  1  0
 28 29  1  0
 29 30  1  0
 30 31  1  0
 31 32  1  0
 32 33  1  0
 33 34  2  0
 34 35  1  0
 35 36  1  0
 36 37  1  0
 36 38  2  0
 38 33  1  0
 38 39  1  0
 39 40  2  0
 39 41  2  0
 39 42  1  0
 42 43  2  0
 43 44  1  0
 44 45  2  0
 45 46  1  0
 46 47  2  0
 47 42  1  0
 23 48  1  0
 48 49  1  0
 49 20  1  0
 19 50  1  0
 50 51  2  0
 51 16  1  0
 51 52  1  0
 52 53  1  0
 14 54  2  0
 54 55  1  0
 55 56  2  0
 56 12  1  0
 56 57  1  0
 10 58  2  0
 58  6  1  0
M  CHG  2  36   1  37  -1
M  END
> <Name>
CHEMBL2381508

> <pChEMBL_Value>
6.76

$$$$
CHEMBL3798887
  SciTegic08122012322D

 40 43  0  0  0  0            999 V2000
    3.8912   -5.2570    0.0000 C   0  0
    3.8933   -3.7570    0.0000 C   0  0
    2.5951   -3.0039    0.0000 C   0  0
    1.2948   -3.7516    0.0000 O   0  0
    2.5973   -1.5031    0.0000 N   0  0
    1.2990   -0.7500    0.0000 C   0  0
    1.2990    0.7500    0.0000 C   0  0
    0.0000    1.5000    0.0000 C   0  0
   -1.2990    0.7500    0.0000 C   0  0
   -1.2990   -0.7500    0.0000 C   0  0
   -2.5972   -1.5031    0.0000 O   0  0
   -2.5951   -3.0039    0.0000 C   0  0
   -1.2935   -3.7495    0.0000 N   0  0
   -1.2883   -5.2495    0.0000 C   0  0
    0.0125   -5.9981    0.0000 N   0  0
    0.0156   -7.4989    0.0000 C   0  0
   -1.2835   -8.2490    0.0000 C   0  0
   -1.2835   -9.7490    0.0000 C   0  0
    0.0156  -10.4990    0.0000 C   0  0
    0.0156  -11.9998    0.0000 N   0  0
   -1.2823  -12.7520    0.0000 C   0  0
   -1.2799  -14.2520    0.0000 C   0  0
    0.0203  -14.9999    0.0000 N   0  0
    0.0258  -16.5007    0.0000 C   0  0
   -1.2707  -17.2550    0.0000 O   0  0
    1.3278  -17.2472    0.0000 C   0  0
    1.3333  -18.7472    0.0000 C   0  0
    2.6244  -16.4929    0.0000 C   0  0
    1.3182  -14.2478    0.0000 C   0  0
    1.3158  -12.7478    0.0000 C   0  0
    1.3146   -9.7490    0.0000 C   0  0
    1.3146   -8.2490    0.0000 C   0  0
    2.6159   -7.5013    0.0000 O   0  0
    3.9139   -8.2532    0.0000 C   0  0
   -2.5847   -6.0040    0.0000 N   0  0
   -3.8863   -5.2585    0.0000 C   0  0
   -3.8915   -3.7585    0.0000 C   0  0
   -5.1954   -3.0153    0.0000 S   0  0
   -6.4908   -3.7717    0.0000 C   0  0
    0.0000   -1.5000    0.0000 C   0  0
  1  2  2  0
  2  3  1  0
  3  4  2  0
  3  5  1  0
  5  6  1  0
  6  7  2  0
  7  8  1  0
  8  9  2  0
  9 10  1  0
 10 11  1  0
 11 12  1  0
 12 13  2  0
 13 14  1  0
 14 15  1  0
 15 16  1  0
 16 17  2  0
 17 18  1  0
 18 19  2  0
 19 20  1  0
 20 21  1  0
 21 22  1  0
 22 23  1  0
 23 24  1  0
 24 25  2  0
 24 26  1  0
 26 27  1  0
 26 28  1  0
 23 29  1  0
 29 30  1  0
 30 20  1  0
 19 31  1  0
 31 32  2  0
 32 16  1  0
 32 33  1  0
 33 34  1  0
 14 35  2  0
 35 36  1  0
 36 37  2  0
 37 12  1  0
 37 38  1  0
 38 39  1  0
 10 40  2  0
 40  6  1  0
M  END
> <Name>
CHEMBL3798887

> <pChEMBL_Value>
6.76

$$$$
CHEMBL3237937
  SciTegic08122012322D

 59 65  0  0  0  0            999 V2000
    3.9068   -0.7607    0.0000 C   0  0
    2.6046   -1.5052    0.0000 O   0  0
    2.5973   -3.0060    0.0000 C   0  0
    3.8942   -3.7597    0.0000 C   0  0
    3.8899   -5.2597    0.0000 C   0  0
    5.1874   -6.0137    0.0000 N   0  0
    6.4899   -5.2696    0.0000 C   0  0
    7.7856   -6.0253    0.0000 C   0  0
    7.7789   -7.5253    0.0000 N   0  0
    9.0746   -8.2811    0.0000 C   0  0
    6.4766   -8.2695    0.0000 C   0  0
    5.1809   -7.5138    0.0000 C   0  0
    2.5887   -6.0060    0.0000 C   0  0
    1.2918   -5.2523    0.0000 C   0  0
    1.2961   -3.7523    0.0000 C   0  0
   -0.0031   -3.0008    0.0000 N   0  0
   -1.3039   -3.7494    0.0000 C   0  0
   -1.3092   -5.2494    0.0000 N   0  0
   -2.6108   -5.9949    0.0000 C   0  0
   -3.9072   -5.2404    0.0000 C   0  0
   -5.2089   -5.9859    0.0000 Cl  0  0
   -3.9020   -3.7404    0.0000 C   0  0
   -5.1977   -2.9829    0.0000 O   0  0
   -5.1903   -1.4821    0.0000 C   0  0
   -6.4841   -0.7230    0.0000 C   0  0
   -6.4738    0.7769    0.0000 C   0  0
   -5.1696    1.5179    0.0000 C   0  0
   -3.8758    0.7590    0.0000 C   0  0
   -2.5693    1.4977    0.0000 N   0  0
   -1.2759    0.7365    0.0000 C   0  0
   -1.2888   -0.7634    0.0000 O   0  0
    0.0306    1.4752    0.0000 C   0  0
    1.3240    0.7140    0.0000 C   0  0
    2.6305    1.4527    0.0000 N   0  0
    3.9243    0.6938    0.0000 C   0  0
    5.2285    1.4348    0.0000 C   0  0
    5.2389    2.9347    0.0000 N   0  0
    6.5423    3.6788    0.0000 C   0  0
    6.5506    5.1796    0.0000 C   0  0
    7.8540    5.9237    0.0000 O   0  0
    7.8623    7.4245    0.0000 C   0  0
    6.6517    8.2885    0.0000 N   0  0
    7.1202    9.7135    0.0000 O   0  0
    8.6202    9.7083    0.0000 N   0  3
    9.5060   10.9187    0.0000 O   0  5
    9.0788    8.2801    0.0000 C   0  0
   10.4984    7.8013    0.0000 S   0  0
   10.7934    6.3306    0.0000 O   0  0
    9.3724    6.8103    0.0000 O   0  0
   11.6255    8.7923    0.0000 C   0  0
   13.0465    8.3120    0.0000 C   0  0
   14.1730    9.3024    0.0000 C   0  0
   13.8785   10.7732    0.0000 C   0  0
   12.4575   11.2536    0.0000 C   0  0
   11.3310   10.2631    0.0000 C   0  0
    3.9451    3.6937    0.0000 C   0  0
    2.6409    2.9528    0.0000 C   0  0
   -3.8861   -0.7410    0.0000 C   0  0
   -2.6004   -2.9949    0.0000 N   0  0
  1  2  1  0
  2  3  1  0
  3  4  2  0
  4  5  1  0
  5  6  1  0
  6  7  1  0
  7  8  1  0
  8  9  1  0
  9 10  1  0
  9 11  1  0
 11 12  1  0
 12  6  1  0
  5 13  2  0
 13 14  1  0
 14 15  2  0
 15  3  1  0
 15 16  1  0
 16 17  1  0
 17 18  2  0
 18 19  1  0
 19 20  2  0
 20 21  1  0
 20 22  1  0
 22 23  1  0
 23 24  1  0
 24 25  2  0
 25 26  1  0
 26 27  2  0
 27 28  1  0
 28 29  1  0
 29 30  1  0
 30 31  2  0
 30 32  1  0
 32 33  1  0
 33 34  1  0
 34 35  1  0
 35 36  1  0
 36 37  1  0
 37 38  1  0
 38 39  1  0
 39 40  1  0
 40 41  1  0
 41 42  2  0
 42 43  1  0
 43 44  1  0
 44 45  1  0
 44 46  2  0
 46 41  1  0
 46 47  1  0
 47 48  2  0
 47 49  2  0
 47 50  1  0
 50 51  2  0
 51 52  1  0
 52 53  2  0
 53 54  1  0
 54 55  2  0
 55 50  1  0
 37 56  1  0
 56 57  1  0
 57 34  1  0
 28 58  2  0
 58 24  1  0
 22 59  2  0
 59 17  1  0
M  CHG  2  44   1  45  -1
M  END
> <Name>
CHEMBL3237937

> <pChEMBL_Value>
6.70

$$$$
CHEMBL3699619
  SciTegic08122012322D

 41 44  0  0  0  0            999 V2000
    3.8912   -5.2570    0.0000 C   0  0
    3.8933   -3.7570    0.0000 C   0  0
    2.5951   -3.0039    0.0000 C   0  0
    1.2948   -3.7516    0.0000 O   0  0
    2.5973   -1.5031    0.0000 N   0  0
    1.2990   -0.7500    0.0000 C   0  0
    1.2990    0.7500    0.0000 C   0  0
    0.0000    1.5000    0.0000 C   0  0
   -1.2990    0.7500    0.0000 C   0  0
   -1.2990   -0.7500    0.0000 C   0  0
   -2.5972   -1.5031    0.0000 O   0  0
   -2.5951   -3.0039    0.0000 C   0  0
   -1.2935   -3.7495    0.0000 N   0  0
   -1.2883   -5.2495    0.0000 C   0  0
    0.0125   -5.9981    0.0000 N   0  0
    0.0156   -7.4989    0.0000 C   0  0
   -1.2835   -8.2490    0.0000 C   0  0
   -1.2835   -9.7490    0.0000 C   0  0
    0.0156  -10.4990    0.0000 C   0  0
    0.0156  -11.9998    0.0000 N   0  0
   -1.2823  -12.7520    0.0000 C   0  0
   -1.2799  -14.2520    0.0000 C   0  0
    0.0203  -14.9999    0.0000 N   0  0
    0.0258  -16.5007    0.0000 C   0  0
   -1.2707  -17.2550    0.0000 O   0  0
    1.3278  -17.2472    0.0000 O   0  0
    1.3333  -18.7480    0.0000 C   0  0
    2.6346  -19.4941    0.0000 C   0  0
    1.3381  -20.2480    0.0000 C   0  0
    0.0368  -19.5023    0.0000 C   0  0
    1.3182  -14.2478    0.0000 C   0  0
    1.3158  -12.7478    0.0000 C   0  0
    1.3146   -9.7490    0.0000 C   0  0
    1.3146   -8.2490    0.0000 C   0  0
    2.6159   -7.5013    0.0000 O   0  0
    3.9139   -8.2532    0.0000 C   0  0
   -2.5847   -6.0040    0.0000 N   0  0
   -3.8863   -5.2585    0.0000 C   0  0
   -3.8915   -3.7585    0.0000 C   0  0
   -5.1932   -3.0130    0.0000 Cl  0  0
    0.0000   -1.5000    0.0000 C   0  0
  1  2  2  0
  2  3  1  0
  3  4  2  0
  3  5  1  0
  5  6  1  0
  6  7  2  0
  7  8  1  0
  8  9  2  0
  9 10  1  0
 10 11  1  0
 11 12  1  0
 12 13  2  0
 13 14  1  0
 14 15  1  0
 15 16  1  0
 16 17  2  0
 17 18  1  0
 18 19  2  0
 19 20  1  0
 20 21  1  0
 21 22  1  0
 22 23  1  0
 23 24  1  0
 24 25  2  0
 24 26  1  0
 26 27  1  0
 27 28  1  0
 27 29  1  0
 27 30  1  0
 23 31  1  0
 31 32  1  0
 32 20  1  0
 19 33  1  0
 33 34  2  0
 34 16  1  0
 34 35  1  0
 35 36  1  0
 14 37  2  0
 37 38  1  0
 38 39  2  0
 39 12  1  0
 39 40  1  0
 10 41  2  0
 41  6  1  0
M  END
> <Name>
CHEMBL3699619

> <pChEMBL_Value>
6.70

$$$$
CHEMBL4203110
  SciTegic08122012322D

 33 36  0  0  0  0            999 V2000
    3.8983   -0.7459    0.0000 C   0  0
    2.6003   -1.4977    0.0000 O   0  0
    1.2990   -0.7500    0.0000 C   0  0
    1.2990    0.7500    0.0000 C   0  0
    0.0000    1.5000    0.0000 C   0  0
    0.0000    3.0008    0.0000 N   0  0
    1.2978    3.7529    0.0000 C   0  0
    1.2954    5.2529    0.0000 C   0  0
   -0.0048    6.0009    0.0000 N   0  0
   -0.0072    7.5009    0.0000 C   0  0
   -1.3026    5.2488    0.0000 C   0  0
   -1.3002    3.7488    0.0000 C   0  0
   -1.2990    0.7500    0.0000 C   0  0
   -1.2990   -0.7500    0.0000 C   0  0
    0.0000   -1.5000    0.0000 C   0  0
   -0.0031   -3.0008    0.0000 N   0  0
   -1.3039   -3.7494    0.0000 C   0  0
   -1.3092   -5.2494    0.0000 N   0  0
   -2.6108   -5.9949    0.0000 C   0  0
   -3.9072   -5.2404    0.0000 C   0  0
   -5.2089   -5.9859    0.0000 Cl  0  0
   -3.9020   -3.7404    0.0000 C   0  0
   -5.1977   -2.9829    0.0000 O   0  0
   -5.1903   -1.4821    0.0000 C   0  0
   -3.8861   -0.7410    0.0000 C   0  0
   -3.8758    0.7590    0.0000 C   0  0
   -5.1696    1.5179    0.0000 C   0  0
   -6.4738    0.7769    0.0000 C   0  0
   -6.4841   -0.7230    0.0000 C   0  0
   -7.7906   -1.4617    0.0000 N   0  0
   -9.0840   -0.7004    0.0000 N   0  3
  -10.3767    0.0604    0.0000 N   0  5
   -2.6004   -2.9949    0.0000 N   0  0
  1  2  1  0
  2  3  1  0
  3  4  2  0
  4  5  1  0
  5  6  1  0
  6  7  1  0
  7  8  1  0
  8  9  1  0
  9 10  1  0
  9 11  1  0
 11 12  1  0
 12  6  1  0
  5 13  2  0
 13 14  1  0
 14 15  2  0
 15  3  1  0
 15 16  1  0
 16 17  1  0
 17 18  2  0
 18 19  1  0
 19 20  2  0
 20 21  1  0
 20 22  1  0
 22 23  1  0
 23 24  1  0
 24 25  2  0
 25 26  1  0
 26 27  2  0
 27 28  1  0
 28 29  2  0
 29 24  1  0
 29 30  1  0
 30 31  2  0
 31 32  2  0
 22 33  2  0
 33 17  1  0
M  CHG  2  31   1  32  -1
M  END
> <Name>
CHEMBL4203110

> <pChEMBL_Value>
6.64

$$$$
CHEMBL2408829
  SciTegic08122012322D

 47 52  0  0  0  0            999 V2000
    1.3097   -0.7480    0.0000 C   0  0
    2.6046   -1.5052    0.0000 O   0  0
    2.5973   -3.0060    0.0000 C   0  0
    3.8942   -3.7597    0.0000 C   0  0
    3.8899   -5.2597    0.0000 C   0  0
    5.1874   -6.0137    0.0000 N   0  0
    6.4899   -5.2696    0.0000 C   0  0
    7.7856   -6.0253    0.0000 C   0  0
    7.7789   -7.5253    0.0000 C   0  0
    9.0746   -8.2811    0.0000 O   0  0
    6.4766   -8.2695    0.0000 C   0  0
    5.1809   -7.5138    0.0000 C   0  0
    2.5887   -6.0060    0.0000 C   0  0
    1.2918   -5.2523    0.0000 C   0  0
    1.2961   -3.7523    0.0000 C   0  0
   -0.0031   -3.0008    0.0000 N   0  0
   -1.3039   -3.7494    0.0000 C   0  0
   -1.3092   -5.2494    0.0000 N   0  0
   -2.6108   -5.9949    0.0000 C   0  0
   -3.9072   -5.2404    0.0000 C   0  0
   -5.2089   -5.9859    0.0000 Cl  0  0
   -3.9020   -3.7404    0.0000 C   0  0
   -5.1977   -2.9829    0.0000 O   0  0
   -6.5020   -3.7253    0.0000 C   0  0
   -7.7980   -2.9700    0.0000 C   0  0
   -9.1001   -3.7147    0.0000 C   0  0
   -9.1063   -5.2147    0.0000 C   0  0
   -7.8103   -5.9700    0.0000 C   0  0
   -7.8134   -7.4708    0.0000 C   0  0
   -6.5157   -8.2247    0.0000 O   0  0
   -6.5188   -9.7256    0.0000 C   0  0
   -7.7358  -10.5804    0.0000 N   0  0
   -7.2782  -12.0089    0.0000 O   0  0
   -5.7782  -12.0150    0.0000 N   0  3
   -4.9015  -13.2322    0.0000 O   0  5
   -5.3088  -10.5903    0.0000 C   0  0
   -3.8856  -10.1223    0.0000 S   0  0
   -3.5795   -8.6539    0.0000 O   0  0
   -5.0041   -9.1228    0.0000 O   0  0
   -2.7660  -11.1218    0.0000 C   0  0
   -1.3414  -10.6522    0.0000 C   0  0
   -0.2225  -11.6512    0.0000 C   0  0
   -0.5281  -13.1197    0.0000 C   0  0
   -1.9527  -13.5893    0.0000 C   0  0
   -3.0717  -12.5903    0.0000 C   0  0
   -6.5082   -5.2253    0.0000 C   0  0
   -2.6004   -2.9949    0.0000 N   0  0
  1  2  1  0
  2  3  1  0
  3  4  2  0
  4  5  1  0
  5  6  1  0
  6  7  1  0
  7  8  1  0
  8  9  1  0
  9 10  1  0
  9 11  1  0
 11 12  1  0
 12  6  1  0
  5 13  2  0
 13 14  1  0
 14 15  2  0
 15  3  1  0
 15 16  1  0
 16 17  1  0
 17 18  2  0
 18 19  1  0
 19 20  2  0
 20 21  1  0
 20 22  1  0
 22 23  1  0
 23 24  1  0
 24 25  2  0
 25 26  1  0
 26 27  2  0
 27 28  1  0
 28 29  1  0
 29 30  1  0
 30 31  1  0
 31 32  2  0
 32 33  1  0
 33 34  1  0
 34 35  1  0
 34 36  2  0
 36 31  1  0
 36 37  1  0
 37 38  2  0
 37 39  2  0
 37 40  1  0
 40 41  2  0
 41 42  1  0
 42 43  2  0
 43 44  1  0
 44 45  2  0
 45 40  1  0
 28 46  2  0
 46 24  1  0
 22 47  2  0
 47 17  1  0
M  CHG  2  34   1  35  -1
M  END
> <Name>
CHEMBL2408829

> <pChEMBL_Value>
6.62

$$$$
CHEMBL3799255
  SciTegic08122012322D

 41 44  0  0  0  0            999 V2000
    3.8912   -5.2570    0.0000 C   0  0
    3.8933   -3.7570    0.0000 C   0  0
    2.5951   -3.0039    0.0000 C   0  0
    1.2948   -3.7516    0.0000 O   0  0
    2.5973   -1.5031    0.0000 N   0  0
    1.2990   -0.7500    0.0000 C   0  0
    1.2990    0.7500    0.0000 C   0  0
    0.0000    1.5000    0.0000 C   0  0
   -1.2990    0.7500    0.0000 C   0  0
   -1.2990   -0.7500    0.0000 C   0  0
   -2.5972   -1.5031    0.0000 O   0  0
   -2.5951   -3.0039    0.0000 C   0  0
   -1.2935   -3.7495    0.0000 N   0  0
   -1.2883   -5.2495    0.0000 C   0  0
    0.0125   -5.9981    0.0000 N   0  0
    0.0156   -7.4989    0.0000 C   0  0
   -1.2835   -8.2490    0.0000 C   0  0
   -1.2835   -9.7490    0.0000 C   0  0
    0.0156  -10.4990    0.0000 C   0  0
    0.0156  -11.9998    0.0000 N   0  0
   -1.2823  -12.7520    0.0000 C   0  0
   -1.2799  -14.2520    0.0000 C   0  0
    0.0203  -14.9999    0.0000 N   0  0
    0.0258  -16.5007    0.0000 C   0  0
   -1.2707  -17.2550    0.0000 O   0  0
    1.3278  -17.2472    0.0000 C   0  0
    1.3333  -18.7472    0.0000 F   0  0
    2.6295  -17.9927    0.0000 F   0  0
    2.6244  -16.4929    0.0000 F   0  0
    1.3182  -14.2478    0.0000 C   0  0
    1.3158  -12.7478    0.0000 C   0  0
    1.3146   -9.7490    0.0000 C   0  0
    1.3146   -8.2490    0.0000 C   0  0
    2.6159   -7.5013    0.0000 O   0  0
    3.9139   -8.2532    0.0000 C   0  0
   -2.5847   -6.0040    0.0000 N   0  0
   -3.8863   -5.2585    0.0000 C   0  0
   -3.8915   -3.7585    0.0000 C   0  0
   -5.1954   -3.0153    0.0000 S   0  0
   -6.4908   -3.7717    0.0000 C   0  0
    0.0000   -1.5000    0.0000 C   0  0
  1  2  2  0
  2  3  1  0
  3  4  2  0
  3  5  1  0
  5  6  1  0
  6  7  2  0
  7  8  1  0
  8  9  2  0
  9 10  1  0
 10 11  1  0
 11 12  1  0
 12 13  2  0
 13 14  1  0
 14 15  1  0
 15 16  1  0
 16 17  2  0
 17 18  1  0
 18 19  2  0
 19 20  1  0
 20 21  1  0
 21 22  1  0
 22 23  1  0
 23 24  1  0
 24 25  2  0
 24 26  1  0
 26 27  1  0
 26 28  1  0
 26 29  1  0
 23 30  1  0
 30 31  1  0
 31 20  1  0
 19 32  1  0
 32 33  2  0
 33 16  1  0
 33 34  1  0
 34 35  1  0
 14 36  2  0
 36 37  1  0
 37 38  2  0
 38 12  1  0
 38 39  1  0
 39 40  1  0
 10 41  2  0
 41  6  1  0
M  END
> <Name>
CHEMBL3799255

> <pChEMBL_Value>
6.61

$$$$
CHEMBL4215496
  SciTegic08122012322D

 42 46  0  0  0  0            999 V2000
    3.8983   -0.7459    0.0000 C   0  0
    2.6003   -1.4977    0.0000 O   0  0
    1.2990   -0.7500    0.0000 C   0  0
    1.2990    0.7500    0.0000 C   0  0
    0.0000    1.5000    0.0000 C   0  0
    0.0000    3.0008    0.0000 N   0  0
    1.2978    3.7529    0.0000 C   0  0
    1.2954    5.2529    0.0000 C   0  0
   -0.0048    6.0009    0.0000 N   0  0
   -0.0072    7.5009    0.0000 C   0  0
   -1.3026    5.2488    0.0000 C   0  0
   -1.3002    3.7488    0.0000 C   0  0
   -1.2990    0.7500    0.0000 C   0  0
   -1.2990   -0.7500    0.0000 C   0  0
    0.0000   -1.5000    0.0000 C   0  0
   -0.0031   -3.0008    0.0000 N   0  0
   -1.3039   -3.7494    0.0000 C   0  0
   -1.3092   -5.2494    0.0000 N   0  0
   -2.6108   -5.9949    0.0000 C   0  0
   -3.9072   -5.2404    0.0000 C   0  0
   -5.2089   -5.9859    0.0000 Cl  0  0
   -3.9020   -3.7404    0.0000 C   0  0
   -5.1977   -2.9829    0.0000 O   0  0
   -5.1903   -1.4821    0.0000 C   0  0
   -3.8861   -0.7410    0.0000 C   0  0
   -3.8758    0.7590    0.0000 C   0  0
   -5.1696    1.5179    0.0000 C   0  0
   -6.4738    0.7769    0.0000 C   0  0
   -6.4841   -0.7230    0.0000 C   0  0
   -7.7906   -1.4617    0.0000 N   0  0
   -9.0840   -0.7004    0.0000 C   0  0
   -9.0710    0.7995    0.0000 O   0  0
  -10.3905   -1.4391    0.0000 C   0  0
  -11.6839   -0.6779    0.0000 O   0  0
  -12.9904   -1.4165    0.0000 C   0  0
  -14.2838   -0.6553    0.0000 C   0  0
  -15.5906   -1.3917    0.0000 C   0  0
  -16.8818   -0.6282    0.0000 C   0  0
  -16.8662    0.8717    0.0000 C   0  0
  -15.5594    1.6082    0.0000 C   0  0
  -14.2683    0.8447    0.0000 C   0  0
   -2.6004   -2.9949    0.0000 N   0  0
  1  2  1  0
  2  3  1  0
  3  4  2  0
  4  5  1  0
  5  6  1  0
  6  7  1  0
  7  8  1  0
  8  9  1  0
  9 10  1  0
  9 11  1  0
 11 12  1  0
 12  6  1  0
  5 13  2  0
 13 14  1  0
 14 15  2  0
 15  3  1  0
 15 16  1  0
 16 17  1  0
 17 18  2  0
 18 19  1  0
 19 20  2  0
 20 21  1  0
 20 22  1  0
 22 23  1  0
 23 24  1  0
 24 25  2  0
 25 26  1  0
 26 27  2  0
 27 28  1  0
 28 29  2  0
 29 24  1  0
 29 30  1  0
 30 31  1  0
 31 32  2  0
 31 33  1  0
 33 34  1  0
 34 35  1  0
 35 36  1  0
 36 37  2  0
 37 38  1  0
 38 39  2  0
 39 40  1  0
 40 41  2  0
 41 36  1  0
 22 42  2  0
 42 17  1  0
M  END
> <Name>
CHEMBL4215496

> <pChEMBL_Value>
6.58

$$$$
CHEMBL3797606
  SciTegic08122012322D

 36 39  0  0  0  0            999 V2000
    3.8912   -5.2570    0.0000 C   0  0
    3.8933   -3.7570    0.0000 C   0  0
    2.5951   -3.0039    0.0000 C   0  0
    1.2948   -3.7516    0.0000 O   0  0
    2.5973   -1.5031    0.0000 N   0  0
    1.2990   -0.7500    0.0000 C   0  0
    1.2990    0.7500    0.0000 C   0  0
    0.0000    1.5000    0.0000 C   0  0
   -1.2990    0.7500    0.0000 C   0  0
   -1.2990   -0.7500    0.0000 C   0  0
   -2.5972   -1.5031    0.0000 O   0  0
   -2.5951   -3.0039    0.0000 C   0  0
   -1.2935   -3.7495    0.0000 N   0  0
   -1.2883   -5.2495    0.0000 C   0  0
    0.0125   -5.9981    0.0000 N   0  0
    0.0156   -7.4989    0.0000 C   0  0
   -1.2835   -8.2490    0.0000 C   0  0
   -1.2835   -9.7490    0.0000 C   0  0
    0.0156  -10.4990    0.0000 C   0  0
    0.0156  -11.9998    0.0000 N   0  0
   -1.2823  -12.7520    0.0000 C   0  0
   -1.2799  -14.2520    0.0000 C   0  0
    0.0203  -14.9999    0.0000 N   0  0
    0.0227  -16.4999    0.0000 C   0  0
    1.3182  -14.2478    0.0000 C   0  0
    1.3158  -12.7478    0.0000 C   0  0
    1.3146   -9.7490    0.0000 C   0  0
    1.3146   -8.2490    0.0000 C   0  0
    2.6159   -7.5013    0.0000 O   0  0
    3.9139   -8.2532    0.0000 C   0  0
   -2.5847   -6.0040    0.0000 N   0  0
   -3.8863   -5.2585    0.0000 C   0  0
   -3.8915   -3.7585    0.0000 C   0  0
   -5.1954   -3.0153    0.0000 S   0  0
   -6.4908   -3.7717    0.0000 C   0  0
    0.0000   -1.5000    0.0000 C   0  0
  1  2  2  0
  2  3  1  0
  3  4  2  0
  3  5  1  0
  5  6  1  0
  6  7  2  0
  7  8  1  0
  8  9  2  0
  9 10  1  0
 10 11  1  0
 11 12  1  0
 12 13  2  0
 13 14  1  0
 14 15  1  0
 15 16  1  0
 16 17  2  0
 17 18  1  0
 18 19  2  0
 19 20  1  0
 20 21  1  0
 21 22  1  0
 22 23  1  0
 23 24  1  0
 23 25  1  0
 25 26  1  0
 26 20  1  0
 19 27  1  0
 27 28  2  0
 28 16  1  0
 28 29  1  0
 29 30  1  0
 14 31  2  0
 31 32  1  0
 32 33  2  0
 33 12  1  0
 33 34  1  0
 34 35  1  0
 10 36  2  0
 36  6  1  0
M  END
> <Name>
CHEMBL3797606

> <pChEMBL_Value>
6.57

$$$$
CHEMBL2381511
  SciTegic08122012322D

 60 65  0  0  0  0            999 V2000
    3.8912   -5.2570    0.0000 C   0  0
    3.8933   -3.7570    0.0000 C   0  0
    2.5951   -3.0039    0.0000 C   0  0
    1.2948   -3.7516    0.0000 O   0  0
    2.5973   -1.5031    0.0000 N   0  0
    1.2990   -0.7500    0.0000 C   0  0
    1.2990    0.7500    0.0000 C   0  0
    0.0000    1.5000    0.0000 C   0  0
   -1.2990    0.7500    0.0000 C   0  0
   -1.2990   -0.7500    0.0000 C   0  0
   -2.5972   -1.5031    0.0000 O   0  0
   -2.5951   -3.0039    0.0000 C   0  0
   -1.2935   -3.7495    0.0000 N   0  0
   -1.2883   -5.2495    0.0000 C   0  0
    0.0125   -5.9981    0.0000 N   0  0
    0.0156   -7.4989    0.0000 C   0  0
   -1.2835   -8.2490    0.0000 C   0  0
   -1.2835   -9.7490    0.0000 C   0  0
    0.0156  -10.4990    0.0000 C   0  0
    0.0156  -11.9998    0.0000 N   0  0
   -1.2823  -12.7520    0.0000 C   0  0
   -1.2799  -14.2520    0.0000 C   0  0
    0.0203  -14.9999    0.0000 N   0  0
    0.0258  -16.5007    0.0000 C   0  0
    1.3278  -17.2472    0.0000 C   0  0
    2.6244  -16.4929    0.0000 O   0  0
    1.3333  -18.7480    0.0000 O   0  0
    2.6353  -19.4945    0.0000 C   0  0
    2.6408  -20.9953    0.0000 C   0  0
    3.9428  -21.7418    0.0000 C   0  0
    3.9483  -23.2426    0.0000 C   0  0
    5.2503  -23.9891    0.0000 C   0  0
    5.2558  -25.4899    0.0000 C   0  0
    6.5578  -26.2364    0.0000 O   0  0
    6.5632  -27.7372    0.0000 C   0  0
    5.3511  -28.5990    0.0000 N   0  0
    5.8169  -30.0248    0.0000 O   0  0
    7.3169  -30.0224    0.0000 N   0  3
    8.2005  -31.2346    0.0000 O   0  5
    7.7781  -28.5951    0.0000 C   0  0
    9.1986  -28.1190    0.0000 S   0  0
    9.4963  -26.6488    0.0000 O   0  0
    8.0744  -27.1259    0.0000 O   0  0
   10.3239  -29.1121    0.0000 C   0  0
   10.0266  -30.5823    0.0000 C   0  0
   11.1513  -31.5749    0.0000 C   0  0
   12.5732  -31.0972    0.0000 C   0  0
   12.8704  -29.6270    0.0000 C   0  0
   11.7458  -28.6344    0.0000 C   0  0
    1.3182  -14.2478    0.0000 C   0  0
    1.3158  -12.7478    0.0000 C   0  0
    1.3146   -9.7490    0.0000 C   0  0
    1.3146   -8.2490    0.0000 C   0  0
    2.6159   -7.5013    0.0000 O   0  0
    3.9139   -8.2532    0.0000 C   0  0
   -2.5847   -6.0040    0.0000 N   0  0
   -3.8863   -5.2585    0.0000 C   0  0
   -3.8915   -3.7585    0.0000 C   0  0
   -5.1932   -3.0130    0.0000 Cl  0  0
    0.0000   -1.5000    0.0000 C   0  0
  1  2  2  0
  2  3  1  0
  3  4  2  0
  3  5  1  0
  5  6  1  0
  6  7  2  0
  7  8  1  0
  8  9  2  0
  9 10  1  0
 10 11  1  0
 11 12  1  0
 12 13  2  0
 13 14  1  0
 14 15  1  0
 15 16  1  0
 16 17  2  0
 17 18  1  0
 18 19  2  0
 19 20  1  0
 20 21  1  0
 21 22  1  0
 22 23  1  0
 23 24  1  0
 24 25  1  0
 25 26  2  0
 25 27  1  0
 27 28  1  0
 28 29  1  0
 29 30  1  0
 30 31  1  0
 31 32  1  0
 32 33  1  0
 33 34  1  0
 34 35  1  0
 35 36  2  0
 36 37  1  0
 37 38  1  0
 38 39  1  0
 38 40  2  0
 40 35  1  0
 40 41  1  0
 41 42  2  0
 41 43  2  0
 41 44  1  0
 44 45  2  0
 45 46  1  0
 46 47  2  0
 47 48  1  0
 48 49  2  0
 49 44  1  0
 23 50  1  0
 50 51  1  0
 51 20  1  0
 19 52  1  0
 52 53  2  0
 53 16  1  0
 53 54  1  0
 54 55  1  0
 14 56  2  0
 56 57  1  0
 57 58  2  0
 58 12  1  0
 58 59  1  0
 10 60  2  0
 60  6  1  0
M  CHG  2  38   1  39  -1
M  END
> <Name>
CHEMBL2381511

> <pChEMBL_Value>
6.54

$$$$
CHEMBL2408830
  SciTegic08122012322D

 50 55  0  0  0  0            999 V2000
   -7.7736   16.5012    0.0000 C   0  0
   -7.7738   15.0012    0.0000 C   0  0
   -6.4746   14.2498    0.0000 C   0  0
   -5.1753   14.9992    0.0000 O   0  0
   -6.4749   12.7490    0.0000 N   0  0
   -5.1775   11.9961    0.0000 C   0  0
   -5.1808   10.4961    0.0000 C   0  0
   -6.4815    9.7490    0.0000 N   0  0
   -6.4848    8.2482    0.0000 C   0  0
   -5.1886    7.4932    0.0000 C   0  0
   -5.1942    5.9932    0.0000 C   0  0
   -6.4961    5.2481    0.0000 C   0  0
   -6.4987    3.7473    0.0000 N   0  0
   -7.7993    2.9983    0.0000 C   0  0
   -9.0991    3.7470    0.0000 N   0  0
  -10.3974    2.9958    0.0000 C   0  0
  -10.3960    1.4958    0.0000 C   0  0
  -11.6944    0.7446    0.0000 Cl  0  0
   -9.0963    0.7470    0.0000 C   0  0
   -9.0918   -0.7538    0.0000 O   0  0
   -7.7903   -1.5011    0.0000 C   0  0
   -7.7836   -3.0011    0.0000 C   0  0
   -6.4813   -3.7454    0.0000 C   0  0
   -5.1855   -2.9897    0.0000 C   0  0
   -5.1921   -1.4897    0.0000 C   0  0
   -3.8972   -0.7310    0.0000 C   0  0
   -3.9060    0.7698    0.0000 O   0  0
   -2.6111    1.5286    0.0000 C   0  0
   -1.2570    0.9135    0.0000 N   0  0
   -0.2582    2.0327    0.0000 O   0  0
   -1.0139    3.3284    0.0000 N   0  3
   -0.4098    4.7014    0.0000 O   0  5
   -2.4797    3.0101    0.0000 C   0  0
   -3.6051    3.9990    0.0000 S   0  0
   -5.0258    3.5178    0.0000 O   0  0
   -3.8989    2.5281    0.0000 O   0  0
   -3.3118    5.4709    0.0000 C   0  0
   -1.8912    5.9526    0.0000 C   0  0
   -1.5981    7.4237    0.0000 C   0  0
   -2.7255    8.4131    0.0000 C   0  0
   -4.1461    7.9314    0.0000 C   0  0
   -4.4392    6.4603    0.0000 C   0  0
   -6.4944   -0.7455    0.0000 C   0  0
   -7.7979    1.4983    0.0000 N   0  0
   -7.7923    6.0031    0.0000 C   0  0
   -9.0964    5.2602    0.0000 O   0  0
  -10.3915    6.0170    0.0000 C   0  0
   -7.7866    7.5030    0.0000 C   0  0
   -7.7788   10.5018    0.0000 C   0  0
   -7.7755   12.0018    0.0000 C   0  0
  1  2  2  0
  2  3  1  0
  3  4  2  0
  3  5  1  0
  5  6  1  0
  6  7  1  0
  7  8  1  0
  8  9  1  0
  9 10  2  0
 10 11  1  0
 11 12  2  0
 12 13  1  0
 13 14  1  0
 14 15  2  0
 15 16  1  0
 16 17  2  0
 17 18  1  0
 17 19  1  0
 19 20  1  0
 20 21  1  0
 21 22  2  0
 22 23  1  0
 23 24  2  0
 24 25  1  0
 25 26  1  0
 26 27  1  0
 27 28  1  0
 28 29  2  0
 29 30  1  0
 30 31  1  0
 31 32  1  0
 31 33  2  0
 33 28  1  0
 33 34  1  0
 34 35  2  0
 34 36  2  0
 34 37  1  0
 37 38  2  0
 38 39  1  0
 39 40  2  0
 40 41  1  0
 41 42  2  0
 42 37  1  0
 25 43  2  0
 43 21  1  0
 19 44  2  0
 44 14  1  0
 12 45  1  0
 45 46  1  0
 46 47  1  0
 45 48  2  0
 48  9  1  0
  8 49  1  0
 49 50  1  0
 50  5  1  0
M  CHG  2  31   1  32  -1
M  END
> <Name>
CHEMBL2408830

> <pChEMBL_Value>
6.46

$$$$
CHEMBL3799864
  SciTegic08122012322D

 39 42  0  0  0  0            999 V2000
    7.6472   -5.4375    0.0000 C   0  0
    9.1243   -5.6982    0.0000 C   0  0
   10.0899   -4.5492    0.0000 C   0  0
    9.5775   -3.1394    0.0000 O   0  0
   11.5679   -4.8100    0.0000 N   0  0
   12.5335   -3.6610    0.0000 C   0  0
   14.0111   -3.9196    0.0000 C   0  0
   14.9737   -2.7693    0.0000 C   0  0
   14.4589   -1.3604    0.0000 C   0  0
   12.9813   -1.1018    0.0000 C   0  0
   12.4633    0.3068    0.0000 O   0  0
   10.9846    0.5635    0.0000 C   0  0
   10.0259   -0.5902    0.0000 N   0  0
    8.5474   -0.3368    0.0000 C   0  0
    7.5858   -1.4891    0.0000 N   0  0
    6.1069   -1.2335    0.0000 C   0  0
    5.5920    0.1754    0.0000 C   0  0
    4.1145    0.4339    0.0000 C   0  0
    3.1484   -0.7186    0.0000 C   0  0
    1.6852   -0.3846    0.0000 N   0  0
    1.3514    1.0778    0.0000 C   0  0
    0.0000    1.7286    0.0000 C   0  0
   -1.3515    1.0777    0.0000 C   0  0
   -1.6852   -0.3847    0.0000 N   0  0
   -3.1497   -0.7220    0.0000 C   0  0
   -4.1718    0.3758    0.0000 C   0  0
   -3.5898   -2.1560    0.0000 O   0  0
   -0.7500   -1.5574    0.0000 C   0  0
    0.7500   -1.5574    0.0000 C   0  0
    3.6667   -2.1252    0.0000 C   0  0
    5.1442   -2.3838    0.0000 C   0  0
    5.6565   -3.7945    0.0000 O   0  0
    4.6921   -4.9435    0.0000 C   0  0
    8.0277    1.0704    0.0000 N   0  0
    8.9864    2.2240    0.0000 C   0  0
   10.4648    1.9705    0.0000 C   0  0
   11.4217    3.1268    0.0000 S   0  0
   10.9000    4.5331    0.0000 C   0  0
   12.0186   -2.2522    0.0000 C   0  0
  1  2  2  0
  2  3  1  0
  3  4  2  0
  3  5  1  0
  5  6  1  0
  6  7  2  0
  7  8  1  0
  8  9  2  0
  9 10  1  0
 10 11  1  0
 11 12  1  0
 12 13  2  0
 13 14  1  0
 14 15  1  0
 15 16  1  0
 16 17  2  0
 17 18  1  0
 18 19  2  0
 19 20  1  0
 20 21  1  0
 21 22  1  0
 22 23  1  0
 23 24  1  0
 24 25  1  0
 25 26  1  0
 25 27  2  0
 24 28  1  0
 28 29  1  0
 29 20  1  0
 19 30  1  0
 30 31  2  0
 31 16  1  0
 31 32  1  0
 32 33  1  0
 14 34  2  0
 34 35  1  0
 35 36  2  0
 36 12  1  0
 36 37  1  0
 37 38  1  0
 10 39  2  0
 39  6  1  0
M  END
> <Name>
CHEMBL3799864

> <pChEMBL_Value>
6.41

$$$$
CHEMBL3799138
  SciTegic08122012322D

 41 44  0  0  0  0            999 V2000
    3.8912   -5.2570    0.0000 C   0  0
    3.8933   -3.7570    0.0000 C   0  0
    2.5951   -3.0039    0.0000 C   0  0
    1.2948   -3.7516    0.0000 O   0  0
    2.5973   -1.5031    0.0000 N   0  0
    1.2990   -0.7500    0.0000 C   0  0
    1.2990    0.7500    0.0000 C   0  0
    0.0000    1.5000    0.0000 C   0  0
   -1.2990    0.7500    0.0000 C   0  0
   -1.2990   -0.7500    0.0000 C   0  0
   -2.5972   -1.5031    0.0000 O   0  0
   -2.5951   -3.0039    0.0000 C   0  0
   -1.2935   -3.7495    0.0000 N   0  0
   -1.2883   -5.2495    0.0000 C   0  0
    0.0125   -5.9981    0.0000 N   0  0
    0.0156   -7.4989    0.0000 C   0  0
   -1.2835   -8.2490    0.0000 C   0  0
   -1.2835   -9.7490    0.0000 C   0  0
    0.0156  -10.4990    0.0000 C   0  0
    0.0156  -11.9998    0.0000 N   0  0
   -1.2823  -12.7520    0.0000 C   0  0
   -1.2799  -14.2520    0.0000 C   0  0
    0.0203  -14.9999    0.0000 N   0  0
    0.0258  -16.5007    0.0000 C   0  0
   -1.2707  -17.2550    0.0000 O   0  0
    1.3278  -17.2472    0.0000 C   0  0
    1.3333  -18.7472    0.0000 C   0  0
    2.6295  -17.9927    0.0000 C   0  0
    2.6244  -16.4929    0.0000 C   0  0
    1.3182  -14.2478    0.0000 C   0  0
    1.3158  -12.7478    0.0000 C   0  0
    1.3146   -9.7490    0.0000 C   0  0
    1.3146   -8.2490    0.0000 C   0  0
    2.6159   -7.5013    0.0000 O   0  0
    3.9139   -8.2532    0.0000 C   0  0
   -2.5847   -6.0040    0.0000 N   0  0
   -3.8863   -5.2585    0.0000 C   0  0
   -3.8915   -3.7585    0.0000 C   0  0
   -5.1954   -3.0153    0.0000 S   0  0
   -6.4908   -3.7717    0.0000 C   0  0
    0.0000   -1.5000    0.0000 C   0  0
  1  2  2  0
  2  3  1  0
  3  4  2  0
  3  5  1  0
  5  6  1  0
  6  7  2  0
  7  8  1  0
  8  9  2  0
  9 10  1  0
 10 11  1  0
 11 12  1  0
 12 13  2  0
 13 14  1  0
 14 15  1  0
 15 16  1  0
 16 17  2  0
 17 18  1  0
 18 19  2  0
 19 20  1  0
 20 21  1  0
 21 22  1  0
 22 23  1  0
 23 24  1  0
 24 25  2  0
 24 26  1  0
 26 27  1  0
 26 28  1  0
 26 29  1  0
 23 30  1  0
 30 31  1  0
 31 20  1  0
 19 32  1  0
 32 33  2  0
 33 16  1  0
 33 34  1  0
 34 35  1  0
 14 36  2  0
 36 37  1  0
 37 38  2  0
 38 12  1  0
 38 39  1  0
 39 40  1  0
 10 41  2  0
 41  6  1  0
M  END
> <Name>
CHEMBL3799138

> <pChEMBL_Value>
6.39

$$$$
CHEMBL3237931
  SciTegic08122012322D

 40 44  0  0  0  0            999 V2000
    3.9068   -0.7607    0.0000 C   0  0
    2.6046   -1.5052    0.0000 O   0  0
    2.5973   -3.0060    0.0000 C   0  0
    3.8942   -3.7597    0.0000 C   0  0
    3.8899   -5.2597    0.0000 C   0  0
    5.1874   -6.0137    0.0000 N   0  0
    6.4899   -5.2696    0.0000 C   0  0
    7.7856   -6.0253    0.0000 C   0  0
    7.7789   -7.5253    0.0000 N   0  0
    9.0746   -8.2811    0.0000 C   0  0
    6.4766   -8.2695    0.0000 C   0  0
    5.1809   -7.5138    0.0000 C   0  0
    2.5887   -6.0060    0.0000 C   0  0
    1.2918   -5.2523    0.0000 C   0  0
    1.2961   -3.7523    0.0000 C   0  0
   -0.0031   -3.0008    0.0000 N   0  0
   -1.3039   -3.7494    0.0000 C   0  0
   -1.3092   -5.2494    0.0000 N   0  0
   -2.6108   -5.9949    0.0000 C   0  0
   -3.9072   -5.2404    0.0000 C   0  0
   -5.2089   -5.9859    0.0000 Cl  0  0
   -3.9020   -3.7404    0.0000 C   0  0
   -5.1977   -2.9829    0.0000 O   0  0
   -5.1903   -1.4821    0.0000 C   0  0
   -6.4841   -0.7230    0.0000 C   0  0
   -6.4738    0.7769    0.0000 C   0  0
   -5.1696    1.5179    0.0000 C   0  0
   -3.8758    0.7590    0.0000 C   0  0
   -2.5693    1.4977    0.0000 N   0  0
   -1.2759    0.7365    0.0000 C   0  0
   -1.2888   -0.7634    0.0000 O   0  0
    0.0306    1.4752    0.0000 C   0  0
    1.3240    0.7140    0.0000 C   0  0
    2.6305    1.4527    0.0000 N   0  0
    3.9775    0.8224    0.0000 C   0  0
    4.9889    1.9301    0.0000 C   0  0
    4.2479    3.2343    0.0000 C   0  0
    2.7786    2.9326    0.0000 C   0  0
   -3.8861   -0.7410    0.0000 C   0  0
   -2.6004   -2.9949    0.0000 N   0  0
  1  2  1  0
  2  3  1  0
  3  4  2  0
  4  5  1  0
  5  6  1  0
  6  7  1  0
  7  8  1  0
  8  9  1  0
  9 10  1  0
  9 11  1  0
 11 12  1  0
 12  6  1  0
  5 13  2  0
 13 14  1  0
 14 15  2  0
 15  3  1  0
 15 16  1  0
 16 17  1  0
 17 18  2  0
 18 19  1  0
 19 20  2  0
 20 21  1  0
 20 22  1  0
 22 23  1  0
 23 24  1  0
 24 25  2  0
 25 26  1  0
 26 27  2  0
 27 28  1  0
 28 29  1  0
 29 30  1  0
 30 31  2  0
 30 32  1  0
 32 33  1  0
 33 34  1  0
 34 35  1  0
 35 36  1  0
 36 37  1  0
 37 38  1  0
 38 34  1  0
 28 39  2  0
 39 24  1  0
 22 40  2  0
 40 17  1  0
M  END
> <Name>
CHEMBL3237931

> <pChEMBL_Value>
6.28

$$$$
CHEMBL3237929
  SciTegic08122012322D

 38 41  0  0  0  0            999 V2000
    3.9068   -0.7607    0.0000 C   0  0
    2.6046   -1.5052    0.0000 O   0  0
    2.5973   -3.0060    0.0000 C   0  0
    3.8942   -3.7597    0.0000 C   0  0
    3.8899   -5.2597    0.0000 C   0  0
    5.1874   -6.0137    0.0000 N   0  0
    6.4899   -5.2696    0.0000 C   0  0
    7.7856   -6.0253    0.0000 C   0  0
    7.7789   -7.5253    0.0000 N   0  0
    9.0746   -8.2811    0.0000 C   0  0
    6.4766   -8.2695    0.0000 C   0  0
    5.1809   -7.5138    0.0000 C   0  0
    2.5887   -6.0060    0.0000 C   0  0
    1.2918   -5.2523    0.0000 C   0  0
    1.2961   -3.7523    0.0000 C   0  0
   -0.0031   -3.0008    0.0000 N   0  0
   -1.3039   -3.7494    0.0000 C   0  0
   -1.3092   -5.2494    0.0000 N   0  0
   -2.6108   -5.9949    0.0000 C   0  0
   -3.9072   -5.2404    0.0000 C   0  0
   -5.2089   -5.9859    0.0000 Cl  0  0
   -3.9020   -3.7404    0.0000 C   0  0
   -5.1977   -2.9829    0.0000 O   0  0
   -5.1903   -1.4821    0.0000 C   0  0
   -6.4841   -0.7230    0.0000 C   0  0
   -6.4738    0.7769    0.0000 C   0  0
   -5.1696    1.5179    0.0000 C   0  0
   -3.8758    0.7590    0.0000 C   0  0
   -2.5693    1.4977    0.0000 N   0  0
   -1.2759    0.7365    0.0000 C   0  0
   -1.2888   -0.7634    0.0000 O   0  0
    0.0306    1.4752    0.0000 C   0  0
    1.3240    0.7140    0.0000 C   0  0
    2.6305    1.4527    0.0000 N   0  0
    3.9232    0.6919    0.0000 C   0  0
    2.6434    2.9527    0.0000 C   0  0
   -3.8861   -0.7410    0.0000 C   0  0
   -2.6004   -2.9949    0.0000 N   0  0
  1  2  1  0
  2  3  1  0
  3  4  2  0
  4  5  1  0
  5  6  1  0
  6  7  1  0
  7  8  1  0
  8  9  1  0
  9 10  1  0
  9 11  1  0
 11 12  1  0
 12  6  1  0
  5 13  2  0
 13 14  1  0
 14 15  2  0
 15  3  1  0
 15 16  1  0
 16 17  1  0
 17 18  2  0
 18 19  1  0
 19 20  2  0
 20 21  1  0
 20 22  1  0
 22 23  1  0
 23 24  1  0
 24 25  2  0
 25 26  1  0
 26 27  2  0
 27 28  1  0
 28 29  1  0
 29 30  1  0
 30 31  2  0
 30 32  1  0
 32 33  1  0
 33 34  1  0
 34 35  1  0
 34 36  1  0
 28 37  2  0
 37 24  1  0
 22 38  2  0
 38 17  1  0
M  END
> <Name>
CHEMBL3237929

> <pChEMBL_Value>
6.20

$$$$
CHEMBL3699616
  SciTegic08122012322D

 44 47  0  0  0  0            999 V2000
    3.8912   -5.2570    0.0000 C   0  0
    3.8933   -3.7570    0.0000 C   0  0
    2.5951   -3.0039    0.0000 C   0  0
    1.2948   -3.7516    0.0000 O   0  0
    2.5973   -1.5031    0.0000 N   0  0
    1.2990   -0.7500    0.0000 C   0  0
    1.2990    0.7500    0.0000 C   0  0
    0.0000    1.5000    0.0000 C   0  0
   -1.2990    0.7500    0.0000 C   0  0
   -1.2990   -0.7500    0.0000 C   0  0
   -2.5972   -1.5031    0.0000 O   0  0
   -2.5951   -3.0039    0.0000 C   0  0
   -1.2935   -3.7495    0.0000 N   0  0
   -1.2883   -5.2495    0.0000 C   0  0
    0.0125   -5.9981    0.0000 N   0  0
    0.0156   -7.4989    0.0000 C   0  0
   -1.2835   -8.2490    0.0000 C   0  0
   -1.2835   -9.7490    0.0000 C   0  0
    0.0156  -10.4990    0.0000 C   0  0
    0.0156  -11.9998    0.0000 N   0  0
   -1.2823  -12.7520    0.0000 C   0  0
   -1.2799  -14.2520    0.0000 C   0  0
    0.0203  -14.9999    0.0000 N   0  0
    0.0258  -16.5007    0.0000 C   0  0
   -1.2707  -17.2550    0.0000 O   0  0
    1.3278  -17.2472    0.0000 C   0  0
    1.3333  -18.7480    0.0000 C   0  0
    2.6346  -19.4941    0.0000 C   0  0
    1.3381  -20.2480    0.0000 C   0  0
    0.0368  -19.5023    0.0000 C   0  0
    1.3182  -14.2478    0.0000 C   0  0
    1.3158  -12.7478    0.0000 C   0  0
    1.3146   -9.7490    0.0000 C   0  0
    1.3146   -8.2490    0.0000 C   0  0
    2.6159   -7.5013    0.0000 O   0  0
    3.9139   -8.2532    0.0000 C   0  0
   -2.5847   -6.0040    0.0000 N   0  0
   -3.8863   -5.2585    0.0000 C   0  0
   -3.8915   -3.7585    0.0000 C   0  0
   -5.1939   -3.0126    0.0000 C   0  0
   -6.4908   -3.7663    0.0000 F   0  0
   -5.1987   -1.5126    0.0000 F   0  0
   -6.4952   -2.2666    0.0000 F   0  0
    0.0000   -1.5000    0.0000 C   0  0
  1  2  2  0
  2  3  1  0
  3  4  2  0
  3  5  1  0
  5  6  1  0
  6  7  2  0
  7  8  1  0
  8  9  2  0
  9 10  1  0
 10 11  1  0
 11 12  1  0
 12 13  2  0
 13 14  1  0
 14 15  1  0
 15 16  1  0
 16 17  2  0
 17 18  1  0
 18 19  2  0
 19 20  1  0
 20 21  1  0
 21 22  1  0
 22 23  1  0
 23 24  1  0
 24 25  2  0
 24 26  1  0
 26 27  1  0
 27 28  1  0
 27 29  1  0
 27 30  1  0
 23 31  1  0
 31 32  1  0
 32 20  1  0
 19 33  1  0
 33 34  2  0
 34 16  1  0
 34 35  1  0
 35 36  1  0
 14 37  2  0
 37 38  1  0
 38 39  2  0
 39 12  1  0
 39 40  1  0
 40 41  1  0
 40 42  1  0
 40 43  1  0
 10 44  2  0
 44  6  1  0
M  END
> <Name>
CHEMBL3699616

> <pChEMBL_Value>
6.19

$$$$
CHEMBL4208712
  SciTegic08122012322D

 36 39  0  0  0  0            999 V2000
    3.8983   -0.7459    0.0000 C   0  0
    2.6003   -1.4977    0.0000 O   0  0
    1.2990   -0.7500    0.0000 C   0  0
    1.2990    0.7500    0.0000 C   0  0
    0.0000    1.5000    0.0000 C   0  0
    0.0000    3.0008    0.0000 N   0  0
    1.2978    3.7529    0.0000 C   0  0
    1.2954    5.2529    0.0000 C   0  0
   -0.0048    6.0009    0.0000 N   0  0
   -0.0072    7.5009    0.0000 C   0  0
   -1.3026    5.2488    0.0000 C   0  0
   -1.3002    3.7488    0.0000 C   0  0
   -1.2990    0.7500    0.0000 C   0  0
   -1.2990   -0.7500    0.0000 C   0  0
    0.0000   -1.5000    0.0000 C   0  0
   -0.0031   -3.0008    0.0000 N   0  0
   -1.3039   -3.7494    0.0000 C   0  0
   -1.3092   -5.2494    0.0000 N   0  0
   -2.6108   -5.9949    0.0000 C   0  0
   -3.9072   -5.2404    0.0000 C   0  0
   -5.2089   -5.9859    0.0000 Cl  0  0
   -3.9020   -3.7404    0.0000 C   0  0
   -5.1977   -2.9829    0.0000 O   0  0
   -5.1903   -1.4821    0.0000 C   0  0
   -3.8861   -0.7410    0.0000 C   0  0
   -3.8758    0.7590    0.0000 C   0  0
   -5.1696    1.5179    0.0000 C   0  0
   -6.4738    0.7769    0.0000 C   0  0
   -6.4841   -0.7230    0.0000 C   0  0
   -7.7906   -1.4617    0.0000 N   0  0
   -9.0840   -0.7004    0.0000 C   0  0
   -9.0710    0.7995    0.0000 O   0  0
  -10.3905   -1.4391    0.0000 C   0  0
  -11.6839   -0.6779    0.0000 C   0  0
  -12.9896   -1.4161    0.0000 O   0  0
   -2.6004   -2.9949    0.0000 N   0  0
  1  2  1  0
  2  3  1  0
  3  4  2  0
  4  5  1  0
  5  6  1  0
  6  7  1  0
  7  8  1  0
  8  9  1  0
  9 10  1  0
  9 11  1  0
 11 12  1  0
 12  6  1  0
  5 13  2  0
 13 14  1  0
 14 15  2  0
 15  3  1  0
 15 16  1  0
 16 17  1  0
 17 18  2  0
 18 19  1  0
 19 20  2  0
 20 21  1  0
 20 22  1  0
 22 23  1  0
 23 24  1  0
 24 25  2  0
 25 26  1  0
 26 27  2  0
 27 28  1  0
 28 29  2  0
 29 24  1  0
 29 30  1  0
 30 31  1  0
 31 32  2  0
 31 33  1  0
 33 34  1  0
 34 35  1  0
 22 36  2  0
 36 17  1  0
M  END
> <Name>
CHEMBL4208712

> <pChEMBL_Value>
6.19

$$$$
CHEMBL3975588
  SciTegic08122012322D

 28 30  0  0  0  0            999 V2000
    3.8912   -5.2570    0.0000 C   0  0
    3.8933   -3.7570    0.0000 C   0  0
    2.5951   -3.0039    0.0000 C   0  0
    1.2948   -3.7516    0.0000 O   0  0
    2.5973   -1.5031    0.0000 N   0  0
    1.2990   -0.7500    0.0000 C   0  0
    1.2990    0.7500    0.0000 C   0  0
    0.0000    1.5000    0.0000 C   0  0
   -1.2990    0.7500    0.0000 C   0  0
   -1.2990   -0.7500    0.0000 C   0  0
   -2.5972   -1.5031    0.0000 O   0  0
   -2.5951   -3.0039    0.0000 C   0  0
   -1.2935   -3.7495    0.0000 N   0  0
   -1.2883   -5.2495    0.0000 C   0  0
    0.0125   -5.9981    0.0000 N   0  0
    0.0156   -7.4989    0.0000 C   0  0
   -1.2835   -8.2490    0.0000 C   0  0
   -1.2835   -9.7490    0.0000 C   0  0
    0.0156  -10.4990    0.0000 C   0  0
    1.3146   -9.7490    0.0000 C   0  0
    1.3146   -8.2490    0.0000 C   0  0
    2.6159   -7.5013    0.0000 O   0  0
    3.9139   -8.2532    0.0000 C   0  0
   -2.5847   -6.0040    0.0000 N   0  0
   -3.8863   -5.2585    0.0000 C   0  0
   -3.8915   -3.7585    0.0000 C   0  0
   -5.1932   -3.0130    0.0000 Cl  0  0
    0.0000   -1.5000    0.0000 C   0  0
  1  2  2  0
  2  3  1  0
  3  4  2  0
  3  5  1  0
  5  6  1  0
  6  7  2  0
  7  8  1  0
  8  9  2  0
  9 10  1  0
 10 11  1  0
 11 12  1  0
 12 13  2  0
 13 14  1  0
 14 15  1  0
 15 16  1  0
 16 17  2  0
 17 18  1  0
 18 19  2  0
 19 20  1  0
 20 21  2  0
 21 16  1  0
 21 22  1  0
 22 23  1  0
 14 24  2  0
 24 25  1  0
 25 26  2  0
 26 12  1  0
 26 27  1  0
 10 28  2  0
 28  6  1  0
M  END
> <Name>
CHEMBL3975588

> <pChEMBL_Value>
6.19

$$$$
CHEMBL3237935
  SciTegic08122012322D

 46 50  0  0  0  0            999 V2000
    3.8912   -5.2570    0.0000 C   0  0
    3.8933   -3.7570    0.0000 C   0  0
    2.5951   -3.0039    0.0000 O   0  0
    2.5973   -1.5031    0.0000 C   0  0
    3.8976   -0.7553    0.0000 O   0  0
    1.2990   -0.7500    0.0000 N   0  0
    1.2990    0.7500    0.0000 C   0  0
    0.0000    1.5000    0.0000 C   0  0
   -1.2990    0.7500    0.0000 N   0  0
   -2.6003    1.4977    0.0000 C   0  0
   -3.8990    0.7455    0.0000 C   0  0
   -5.2003    1.4932    0.0000 C   0  0
   -5.2029    2.9932    0.0000 O   0  0
   -6.4990    0.7409    0.0000 N   0  0
   -7.8003    1.4887    0.0000 C   0  0
   -9.0994    0.7387    0.0000 C   0  0
  -10.3984    1.4886    0.0000 C   0  0
  -10.3985    2.9886    0.0000 C   0  0
   -9.0995    3.7387    0.0000 C   0  0
   -9.0964    5.2395    0.0000 O   0  0
   -7.7956    5.9881    0.0000 C   0  0
   -6.4991    5.2337    0.0000 N   0  0
   -5.1975    5.9792    0.0000 C   0  0
   -3.8987    5.2270    0.0000 N   0  0
   -2.5975    5.9749    0.0000 C   0  0
   -2.5975    7.4749    0.0000 C   0  0
   -1.2984    8.2250    0.0000 C   0  0
    0.0006    7.4750    0.0000 C   0  0
    1.3003    8.2254    0.0000 N   0  0
    1.3027    9.7255    0.0000 C   0  0
    2.6029   10.4734    0.0000 C   0  0
    3.9008    9.7214    0.0000 N   0  0
    5.2010   10.4694    0.0000 C   0  0
    3.8985    8.2214    0.0000 C   0  0
    2.5982    7.4734    0.0000 C   0  0
    0.0007    5.9750    0.0000 C   0  0
   -1.2984    5.2250    0.0000 C   0  0
   -1.2952    3.7241    0.0000 O   0  0
    0.0050    2.9761    0.0000 C   0  0
   -5.1923    7.4792    0.0000 N   0  0
   -6.4888    8.2337    0.0000 C   0  0
   -7.7904    7.4881    0.0000 C   0  0
   -9.0868    8.2426    0.0000 Cl  0  0
   -7.8004    2.9887    0.0000 C   0  0
   -1.2990   -0.7500    0.0000 C   0  0
    0.0000   -1.5000    0.0000 C   0  0
  1  2  1  0
  2  3  1  0
  3  4  1  0
  4  5  2  0
  4  6  1  0
  6  7  1  0
  7  8  1  0
  8  9  1  0
  9 10  1  0
 10 11  1  0
 11 12  1  0
 12 13  2  0
 12 14  1  0
 14 15  1  0
 15 16  2  0
 16 17  1  0
 17 18  2  0
 18 19  1  0
 19 20  1  0
 20 21  1  0
 21 22  2  0
 22 23  1  0
 23 24  1  0
 24 25  1  0
 25 26  2  0
 26 27  1  0
 27 28  2  0
 28 29  1  0
 29 30  1  0
 30 31  1  0
 31 32  1  0
 32 33  1  0
 32 34  1  0
 34 35  1  0
 35 29  1  0
 28 36  1  0
 36 37  2  0
 37 25  1  0
 37 38  1  0
 38 39  1  0
 23 40  2  0
 40 41  1  0
 41 42  2  0
 42 21  1  0
 42 43  1  0
 19 44  2  0
 44 15  1  0
  9 45  1  0
 45 46  1  0
 46  6  1  0
M  END
> <Name>
CHEMBL3237935

> <pChEMBL_Value>
6.16

$$$$
CHEMBL3797963
  SciTegic08122012322D

 39 42  0  0  0  0            999 V2000
    3.8912   -5.2570    0.0000 C   0  0
    3.8933   -3.7570    0.0000 C   0  0
    2.5951   -3.0039    0.0000 C   0  0
    1.2948   -3.7516    0.0000 O   0  0
    2.5973   -1.5031    0.0000 N   0  0
    1.2990   -0.7500    0.0000 C   0  0
    1.2990    0.7500    0.0000 C   0  0
    0.0000    1.5000    0.0000 C   0  0
   -1.2990    0.7500    0.0000 C   0  0
   -1.2990   -0.7500    0.0000 C   0  0
   -2.5972   -1.5031    0.0000 O   0  0
   -2.5951   -3.0039    0.0000 C   0  0
   -1.2935   -3.7495    0.0000 N   0  0
   -1.2883   -5.2495    0.0000 C   0  0
    0.0125   -5.9981    0.0000 N   0  0
    0.0156   -7.4989    0.0000 C   0  0
   -1.2835   -8.2490    0.0000 C   0  0
   -1.2835   -9.7490    0.0000 C   0  0
    0.0156  -10.4990    0.0000 C   0  0
    0.0156  -11.9998    0.0000 N   0  0
   -1.2823  -12.7520    0.0000 C   0  0
   -1.2799  -14.2520    0.0000 C   0  0
    0.0203  -14.9999    0.0000 N   0  0
    0.0227  -16.5007    0.0000 S   0  0
    1.3232  -17.2482    0.0000 C   0  0
   -1.2746  -17.2536    0.0000 O   0  0
    0.0258  -18.0007    0.0000 O   0  0
    1.3182  -14.2478    0.0000 C   0  0
    1.3158  -12.7478    0.0000 C   0  0
    1.3146   -9.7490    0.0000 C   0  0
    1.3146   -8.2490    0.0000 C   0  0
    2.6159   -7.5013    0.0000 O   0  0
    3.9139   -8.2532    0.0000 C   0  0
   -2.5847   -6.0040    0.0000 N   0  0
   -3.8863   -5.2585    0.0000 C   0  0
   -3.8915   -3.7585    0.0000 C   0  0
   -5.1954   -3.0153    0.0000 S   0  0
   -6.4908   -3.7717    0.0000 C   0  0
    0.0000   -1.5000    0.0000 C   0  0
  1  2  2  0
  2  3  1  0
  3  4  2  0
  3  5  1  0
  5  6  1  0
  6  7  2  0
  7  8  1  0
  8  9  2  0
  9 10  1  0
 10 11  1  0
 11 12  1  0
 12 13  2  0
 13 14  1  0
 14 15  1  0
 15 16  1  0
 16 17  2  0
 17 18  1  0
 18 19  2  0
 19 20  1  0
 20 21  1  0
 21 22  1  0
 22 23  1  0
 23 24  1  0
 24 25  1  0
 24 26  2  0
 24 27  2  0
 23 28  1  0
 28 29  1  0
 29 20  1  0
 19 30  1  0
 30 31  2  0
 31 16  1  0
 31 32  1  0
 32 33  1  0
 14 34  2  0
 34 35  1  0
 35 36  2  0
 36 12  1  0
 36 37  1  0
 37 38  1  0
 10 39  2  0
 39  6  1  0
M  END
> <Name>
CHEMBL3797963

> <pChEMBL_Value>
6.14

$$$$
CHEMBL4214040
  SciTegic08122012322D

 35 38  0  0  0  0            999 V2000
    3.8983   -0.7459    0.0000 C   0  0
    2.6003   -1.4977    0.0000 O   0  0
    1.2990   -0.7500    0.0000 C   0  0
    1.2990    0.7500    0.0000 C   0  0
    0.0000    1.5000    0.0000 C   0  0
    0.0000    3.0008    0.0000 N   0  0
    1.2978    3.7529    0.0000 C   0  0
    1.2954    5.2529    0.0000 C   0  0
   -0.0048    6.0009    0.0000 N   0  0
   -0.0072    7.5009    0.0000 C   0  0
   -1.3026    5.2488    0.0000 C   0  0
   -1.3002    3.7488    0.0000 C   0  0
   -1.2990    0.7500    0.0000 C   0  0
   -1.2990   -0.7500    0.0000 C   0  0
    0.0000   -1.5000    0.0000 C   0  0
   -0.0031   -3.0008    0.0000 N   0  0
   -1.3039   -3.7494    0.0000 C   0  0
   -1.3092   -5.2494    0.0000 N   0  0
   -2.6108   -5.9949    0.0000 C   0  0
   -3.9072   -5.2404    0.0000 C   0  0
   -5.2089   -5.9859    0.0000 Cl  0  0
   -3.9020   -3.7404    0.0000 C   0  0
   -5.1977   -2.9829    0.0000 O   0  0
   -5.1903   -1.4821    0.0000 C   0  0
   -6.4841   -0.7230    0.0000 C   0  0
   -6.4738    0.7769    0.0000 C   0  0
   -5.1696    1.5179    0.0000 C   0  0
   -5.1561    3.0187    0.0000 N   0  0
   -3.8501    3.7583    0.0000 C   0  0
   -2.5576    2.9971    0.0000 O   0  0
   -3.8367    5.2590    0.0000 C   0  0
   -2.5314    5.9982    0.0000 O   0  0
   -3.8758    0.7590    0.0000 C   0  0
   -3.8861   -0.7410    0.0000 C   0  0
   -2.6004   -2.9949    0.0000 N   0  0
  1  2  1  0
  2  3  1  0
  3  4  2  0
  4  5  1  0
  5  6  1  0
  6  7  1  0
  7  8  1  0
  8  9  1  0
  9 10  1  0
  9 11  1  0
 11 12  1  0
 12  6  1  0
  5 13  2  0
 13 14  1  0
 14 15  2  0
 15  3  1  0
 15 16  1  0
 16 17  1  0
 17 18  2  0
 18 19  1  0
 19 20  2  0
 20 21  1  0
 20 22  1  0
 22 23  1  0
 23 24  1  0
 24 25  2  0
 25 26  1  0
 26 27  2  0
 27 28  1  0
 28 29  1  0
 29 30  2  0
 29 31  1  0
 31 32  1  0
 27 33  1  0
 33 34  2  0
 34 24  1  0
 22 35  2  0
 35 17  1  0
M  END
> <Name>
CHEMBL4214040

> <pChEMBL_Value>
6.07

$$$$
CHEMBL3237930
  SciTegic08122012322D

 40 43  0  0  0  0            999 V2000
    6.4848   -8.2644    0.0000 C   0  0
    5.1873   -7.5117    0.0000 C   0  0
    5.1894   -6.0109    0.0000 N   0  0
    6.4889   -5.2601    0.0000 C   0  0
    6.4894   -3.7601    0.0000 C   0  0
    3.8912   -5.2578    0.0000 C   0  0
    3.8933   -3.7570    0.0000 C   0  0
    2.5951   -3.0039    0.0000 C   0  0
    1.2948   -3.7516    0.0000 O   0  0
    2.5973   -1.5031    0.0000 N   0  0
    1.2990   -0.7500    0.0000 C   0  0
    1.2990    0.7500    0.0000 C   0  0
    0.0000    1.5000    0.0000 C   0  0
   -1.2990    0.7500    0.0000 C   0  0
   -1.2990   -0.7500    0.0000 C   0  0
   -2.5972   -1.5031    0.0000 O   0  0
   -2.5951   -3.0039    0.0000 C   0  0
   -1.2935   -3.7495    0.0000 N   0  0
   -1.2883   -5.2495    0.0000 C   0  0
    0.0125   -5.9981    0.0000 N   0  0
    0.0156   -7.4989    0.0000 C   0  0
   -1.2835   -8.2490    0.0000 C   0  0
   -1.2835   -9.7490    0.0000 C   0  0
    0.0156  -10.4990    0.0000 C   0  0
    0.0156  -11.9998    0.0000 N   0  0
   -1.2823  -12.7520    0.0000 C   0  0
   -1.2799  -14.2520    0.0000 C   0  0
    0.0203  -14.9999    0.0000 N   0  0
    0.0227  -16.4999    0.0000 C   0  0
    1.3182  -14.2478    0.0000 C   0  0
    1.3158  -12.7478    0.0000 C   0  0
    1.3146   -9.7490    0.0000 C   0  0
    1.3146   -8.2490    0.0000 C   0  0
    2.6159   -7.5013    0.0000 O   0  0
    3.9139   -8.2532    0.0000 C   0  0
   -2.5847   -6.0040    0.0000 N   0  0
   -3.8863   -5.2585    0.0000 C   0  0
   -3.8915   -3.7585    0.0000 C   0  0
   -5.1932   -3.0130    0.0000 Cl  0  0
    0.0000   -1.5000    0.0000 C   0  0
  1  2  1  0
  2  3  1  0
  3  4  1  0
  4  5  1  0
  3  6  1  0
  6  7  1  0
  7  8  1  0
  8  9  2  0
  8 10  1  0
 10 11  1  0
 11 12  2  0
 12 13  1  0
 13 14  2  0
 14 15  1  0
 15 16  1  0
 16 17  1  0
 17 18  2  0
 18 19  1  0
 19 20  1  0
 20 21  1  0
 21 22  2  0
 22 23  1  0
 23 24  2  0
 24 25  1  0
 25 26  1  0
 26 27  1  0
 27 28  1  0
 28 29  1  0
 28 30  1  0
 30 31  1  0
 31 25  1  0
 24 32  1  0
 32 33  2  0
 33 21  1  0
 33 34  1  0
 34 35  1  0
 19 36  2  0
 36 37  1  0
 37 38  2  0
 38 17  1  0
 38 39  1  0
 15 40  2  0
 40 11  1  0
M  END
> <Name>
CHEMBL3237930

> <pChEMBL_Value>
6.06

$$$$
CHEMBL4211573
  SciTegic08122012322D

 42 46  0  0  0  0            999 V2000
    3.9068   -0.7607    0.0000 C   0  0
    2.6046   -1.5052    0.0000 O   0  0
    2.5973   -3.0060    0.0000 C   0  0
    3.8942   -3.7597    0.0000 C   0  0
    3.8899   -5.2597    0.0000 C   0  0
    5.1874   -6.0137    0.0000 N   0  0
    6.4899   -5.2696    0.0000 C   0  0
    7.7856   -6.0253    0.0000 C   0  0
    7.7789   -7.5253    0.0000 N   0  0
    9.0746   -8.2811    0.0000 C   0  0
    6.4766   -8.2695    0.0000 C   0  0
    5.1809   -7.5138    0.0000 C   0  0
    2.5887   -6.0060    0.0000 C   0  0
    1.2918   -5.2523    0.0000 C   0  0
    1.2961   -3.7523    0.0000 C   0  0
   -0.0031   -3.0008    0.0000 N   0  0
   -1.3039   -3.7494    0.0000 C   0  0
   -1.3092   -5.2494    0.0000 N   0  0
   -2.6108   -5.9949    0.0000 C   0  0
   -3.9072   -5.2404    0.0000 C   0  0
   -5.2089   -5.9859    0.0000 Cl  0  0
   -3.9020   -3.7404    0.0000 C   0  0
   -5.1977   -2.9829    0.0000 O   0  0
   -5.1903   -1.4821    0.0000 C   0  0
   -6.4841   -0.7230    0.0000 C   0  0
   -6.4738    0.7769    0.0000 C   0  0
   -5.1696    1.5179    0.0000 C   0  0
   -5.1561    3.0187    0.0000 N   0  0
   -3.8501    3.7583    0.0000 C   0  0
   -2.5576    2.9971    0.0000 O   0  0
   -3.8367    5.2590    0.0000 C   0  0
   -2.5307    5.9986    0.0000 O   0  0
   -2.5173    7.4994    0.0000 C   0  0
   -1.2113    8.2389    0.0000 C   0  0
   -1.1956    9.7389    0.0000 C   0  0
    0.1111   10.4753    0.0000 C   0  0
    1.4023    9.7119    0.0000 C   0  0
    1.3867    8.2120    0.0000 C   0  0
    0.0800    7.4755    0.0000 C   0  0
   -3.8758    0.7590    0.0000 C   0  0
   -3.8861   -0.7410    0.0000 C   0  0
   -2.6004   -2.9949    0.0000 N   0  0
  1  2  1  0
  2  3  1  0
  3  4  2  0
  4  5  1  0
  5  6  1  0
  6  7  1  0
  7  8  1  0
  8  9  1  0
  9 10  1  0
  9 11  1  0
 11 12  1  0
 12  6  1  0
  5 13  2  0
 13 14  1  0
 14 15  2  0
 15  3  1  0
 15 16  1  0
 16 17  1  0
 17 18  2  0
 18 19  1  0
 19 20  2  0
 20 21  1  0
 20 22  1  0
 22 23  1  0
 23 24  1  0
 24 25  2  0
 25 26  1  0
 26 27  2  0
 27 28  1  0
 28 29  1  0
 29 30  2  0
 29 31  1  0
 31 32  1  0
 32 33  1  0
 33 34  1  0
 34 35  2  0
 35 36  1  0
 36 37  2  0
 37 38  1  0
 38 39  2  0
 39 34  1  0
 27 40  1  0
 40 41  2  0
 41 24  1  0
 22 42  2  0
 42 17  1  0
M  END
> <Name>
CHEMBL4211573

> <pChEMBL_Value>
6.03

$$$$
CHEMBL4202413
  SciTegic08122012322D

 42 46  0  0  0  0            999 V2000
    1.3097   -0.7480    0.0000 C   0  0
    2.6046   -1.5052    0.0000 O   0  0
    2.5973   -3.0060    0.0000 C   0  0
    3.8942   -3.7597    0.0000 C   0  0
    3.8899   -5.2597    0.0000 C   0  0
    5.1874   -6.0137    0.0000 N   0  0
    6.4899   -5.2696    0.0000 C   0  0
    7.7856   -6.0253    0.0000 C   0  0
    7.7789   -7.5253    0.0000 N   0  0
    9.0746   -8.2811    0.0000 C   0  0
    6.4766   -8.2695    0.0000 C   0  0
    5.1809   -7.5138    0.0000 C   0  0
    2.5887   -6.0060    0.0000 C   0  0
    1.2918   -5.2523    0.0000 C   0  0
    1.2961   -3.7523    0.0000 C   0  0
   -0.0031   -3.0008    0.0000 N   0  0
   -1.3039   -3.7494    0.0000 C   0  0
   -1.3092   -5.2494    0.0000 N   0  0
   -2.6108   -5.9949    0.0000 C   0  0
   -3.9072   -5.2404    0.0000 C   0  0
   -5.2089   -5.9859    0.0000 Cl  0  0
   -3.9020   -3.7404    0.0000 C   0  0
   -5.1977   -2.9829    0.0000 O   0  0
   -5.1903   -1.4821    0.0000 C   0  0
   -6.4841   -0.7230    0.0000 C   0  0
   -6.4738    0.7769    0.0000 C   0  0
   -5.1696    1.5179    0.0000 C   0  0
   -3.8758    0.7590    0.0000 C   0  0
   -2.5693    1.4977    0.0000 N   0  0
   -1.2759    0.7365    0.0000 C   0  0
   -1.2888   -0.7634    0.0000 O   0  0
    0.0306    1.4752    0.0000 C   0  0
    1.3240    0.7140    0.0000 O   0  0
    2.6305    1.4527    0.0000 C   0  0
    3.9239    0.6915    0.0000 C   0  0
    5.2307    1.4279    0.0000 C   0  0
    6.5219    0.6645    0.0000 C   0  0
    6.5064   -0.8354    0.0000 C   0  0
    5.1996   -1.5719    0.0000 C   0  0
    3.9084   -0.8085    0.0000 C   0  0
   -3.8861   -0.7410    0.0000 C   0  0
   -2.6004   -2.9949    0.0000 N   0  0
  1  2  1  0
  2  3  1  0
  3  4  2  0
  4  5  1  0
  5  6  1  0
  6  7  1  0
  7  8  1  0
  8  9  1  0
  9 10  1  0
  9 11  1  0
 11 12  1  0
 12  6  1  0
  5 13  2  0
 13 14  1  0
 14 15  2  0
 15  3  1  0
 15 16  1  0
 16 17  1  0
 17 18  2  0
 18 19  1  0
 19 20  2  0
 20 21  1  0
 20 22  1  0
 22 23  1  0
 23 24  1  0
 24 25  2  0
 25 26  1  0
 26 27  2  0
 27 28  1  0
 28 29  1  0
 29 30  1  0
 30 31  2  0
 30 32  1  0
 32 33  1  0
 33 34  1  0
 34 35  1  0
 35 36  2  0
 36 37  1  0
 37 38  2  0
 38 39  1  0
 39 40  2  0
 40 35  1  0
 28 41  2  0
 41 24  1  0
 22 42  2  0
 42 17  1  0
M  END
> <Name>
CHEMBL4202413

> <pChEMBL_Value>
5.97

$$$$
CHEMBL4209119
  SciTegic08122012322D

 43 47  0  0  0  0            999 V2000
    3.8983   -0.7459    0.0000 C   0  0
    2.6003   -1.4977    0.0000 O   0  0
    1.2990   -0.7500    0.0000 C   0  0
    1.2990    0.7500    0.0000 C   0  0
    0.0000    1.5000    0.0000 C   0  0
    0.0000    3.0008    0.0000 N   0  0
    1.2978    3.7529    0.0000 C   0  0
    1.2954    5.2529    0.0000 C   0  0
   -0.0048    6.0009    0.0000 N   0  0
   -0.0072    7.5009    0.0000 C   0  0
   -1.3026    5.2488    0.0000 C   0  0
   -1.3002    3.7488    0.0000 C   0  0
   -1.2990    0.7500    0.0000 C   0  0
   -1.2990   -0.7500    0.0000 C   0  0
    0.0000   -1.5000    0.0000 C   0  0
   -0.0031   -3.0008    0.0000 N   0  0
   -1.3039   -3.7494    0.0000 C   0  0
   -1.3092   -5.2494    0.0000 N   0  0
   -2.6108   -5.9949    0.0000 C   0  0
   -3.9072   -5.2404    0.0000 C   0  0
   -5.2089   -5.9859    0.0000 Cl  0  0
   -3.9020   -3.7404    0.0000 C   0  0
   -5.1977   -2.9829    0.0000 O   0  0
   -5.1903   -1.4821    0.0000 C   0  0
   -6.4841   -0.7230    0.0000 C   0  0
   -6.4738    0.7769    0.0000 C   0  0
   -5.1696    1.5179    0.0000 C   0  0
   -5.1561    3.0187    0.0000 N   0  0
   -3.8501    3.7583    0.0000 C   0  0
   -2.5576    2.9971    0.0000 O   0  0
   -3.8367    5.2590    0.0000 C   0  0
   -2.5307    5.9986    0.0000 C   0  0
   -2.5173    7.4994    0.0000 O   0  0
   -1.2113    8.2389    0.0000 C   0  0
   -1.1978    9.7397    0.0000 C   0  0
    0.1064   10.4807    0.0000 C   0  0
    0.1168   11.9807    0.0000 C   0  0
   -1.1770   12.7397    0.0000 C   0  0
   -2.4812   11.9987    0.0000 C   0  0
   -2.4917   10.4988    0.0000 C   0  0
   -3.8758    0.7590    0.0000 C   0  0
   -3.8861   -0.7410    0.0000 C   0  0
   -2.6004   -2.9949    0.0000 N   0  0
  1  2  1  0
  2  3  1  0
  3  4  2  0
  4  5  1  0
  5  6  1  0
  6  7  1  0
  7  8  1  0
  8  9  1  0
  9 10  1  0
  9 11  1  0
 11 12  1  0
 12  6  1  0
  5 13  2  0
 13 14  1  0
 14 15  2  0
 15  3  1  0
 15 16  1  0
 16 17  1  0
 17 18  2  0
 18 19  1  0
 19 20  2  0
 20 21  1  0
 20 22  1  0
 22 23  1  0
 23 24  1  0
 24 25  2  0
 25 26  1  0
 26 27  2  0
 27 28  1  0
 28 29  1  0
 29 30  2  0
 29 31  1  0
 31 32  1  0
 32 33  1  0
 33 34  1  0
 34 35  1  0
 35 36  2  0
 36 37  1  0
 37 38  2  0
 38 39  1  0
 39 40  2  0
 40 35  1  0
 27 41  1  0
 41 42  2  0
 42 24  1  0
 22 43  2  0
 43 17  1  0
M  END
> <Name>
CHEMBL4209119

> <pChEMBL_Value>
5.96

$$$$
CHEMBL2408825
  SciTegic08122012322D

 47 52  0  0  0  0            999 V2000
    3.9068   -0.7607    0.0000 C   0  0
    2.6046   -1.5052    0.0000 O   0  0
    2.5973   -3.0060    0.0000 C   0  0
    3.8942   -3.7597    0.0000 C   0  0
    3.8899   -5.2597    0.0000 C   0  0
    5.1874   -6.0137    0.0000 N   0  0
    6.4899   -5.2696    0.0000 C   0  0
    7.7856   -6.0253    0.0000 C   0  0
    7.7789   -7.5253    0.0000 N   0  0
    9.0746   -8.2811    0.0000 C   0  0
    6.4766   -8.2695    0.0000 C   0  0
    5.1809   -7.5138    0.0000 C   0  0
    2.5887   -6.0060    0.0000 C   0  0
    1.2918   -5.2523    0.0000 C   0  0
    1.2961   -3.7523    0.0000 C   0  0
   -0.0031   -3.0008    0.0000 N   0  0
   -1.3039   -3.7494    0.0000 C   0  0
   -1.3092   -5.2494    0.0000 N   0  0
   -2.6108   -5.9949    0.0000 C   0  0
   -3.9072   -5.2404    0.0000 C   0  0
   -5.2089   -5.9859    0.0000 Cl  0  0
   -3.9020   -3.7404    0.0000 C   0  0
   -5.1977   -2.9829    0.0000 O   0  0
   -5.1903   -1.4821    0.0000 C   0  0
   -6.4841   -0.7230    0.0000 C   0  0
   -6.4738    0.7769    0.0000 C   0  0
   -5.1696    1.5179    0.0000 C   0  0
   -5.1561    3.0187    0.0000 C   0  0
   -3.8501    3.7583    0.0000 O   0  0
   -3.8367    5.2590    0.0000 C   0  0
   -5.0443    6.1272    0.0000 N   0  0
   -4.5709    7.5506    0.0000 O   0  0
   -3.0709    7.5402    0.0000 N   0  3
   -2.1808    8.7476    0.0000 O   0  5
   -2.6173    6.1104    0.0000 C   0  0
   -1.1993    5.6267    0.0000 S   0  0
   -0.9094    4.1550    0.0000 O   0  0
   -2.3288    4.6396    0.0000 O   0  0
   -0.0688    6.6138    0.0000 C   0  0
    1.3506    6.1286    0.0000 C   0  0
    2.4805    7.1152    0.0000 C   0  0
    2.1910    8.5870    0.0000 C   0  0
    0.7717    9.0722    0.0000 C   0  0
   -0.3582    8.0857    0.0000 C   0  0
   -3.8758    0.7590    0.0000 C   0  0
   -3.8861   -0.7410    0.0000 C   0  0
   -2.6004   -2.9949    0.0000 N   0  0
  1  2  1  0
  2  3  1  0
  3  4  2  0
  4  5  1  0
  5  6  1  0
  6  7  1  0
  7  8  1  0
  8  9  1  0
  9 10  1  0
  9 11  1  0
 11 12  1  0
 12  6  1  0
  5 13  2  0
 13 14  1  0
 14 15  2  0
 15  3  1  0
 15 16  1  0
 16 17  1  0
 17 18  2  0
 18 19  1  0
 19 20  2  0
 20 21  1  0
 20 22  1  0
 22 23  1  0
 23 24  1  0
 24 25  2  0
 25 26  1  0
 26 27  2  0
 27 28  1  0
 28 29  1  0
 29 30  1  0
 30 31  2  0
 31 32  1  0
 32 33  1  0
 33 34  1  0
 33 35  2  0
 35 30  1  0
 35 36  1  0
 36 37  2  0
 36 38  2  0
 36 39  1  0
 39 40  2  0
 40 41  1  0
 41 42  2  0
 42 43  1  0
 43 44  2  0
 44 39  1  0
 27 45  1  0
 45 46  2  0
 46 24  1  0
 22 47  2  0
 47 17  1  0
M  CHG  2  33   1  34  -1
M  END
> <Name>
CHEMBL2408825

> <pChEMBL_Value>
5.96

$$$$
CHEMBL4216784
  SciTegic08122012322D

 31 34  0  0  0  0            999 V2000
    3.8983   -0.7459    0.0000 C   0  0
    2.6003   -1.4977    0.0000 O   0  0
    1.2990   -0.7500    0.0000 C   0  0
    1.2990    0.7500    0.0000 C   0  0
    0.0000    1.5000    0.0000 C   0  0
    0.0000    3.0008    0.0000 N   0  0
    1.2978    3.7529    0.0000 C   0  0
    1.2954    5.2529    0.0000 C   0  0
   -0.0048    6.0009    0.0000 N   0  0
   -0.0072    7.5009    0.0000 C   0  0
   -1.3026    5.2488    0.0000 C   0  0
   -1.3002    3.7488    0.0000 C   0  0
   -1.2990    0.7500    0.0000 C   0  0
   -1.2990   -0.7500    0.0000 C   0  0
    0.0000   -1.5000    0.0000 C   0  0
   -0.0031   -3.0008    0.0000 N   0  0
   -1.3039   -3.7494    0.0000 C   0  0
   -1.3092   -5.2494    0.0000 N   0  0
   -2.6108   -5.9949    0.0000 C   0  0
   -3.9072   -5.2404    0.0000 C   0  0
   -5.2089   -5.9859    0.0000 Cl  0  0
   -3.9020   -3.7404    0.0000 C   0  0
   -5.1977   -2.9829    0.0000 O   0  0
   -5.1903   -1.4821    0.0000 C   0  0
   -3.8861   -0.7410    0.0000 C   0  0
   -3.8758    0.7590    0.0000 C   0  0
   -5.1696    1.5179    0.0000 C   0  0
   -6.4738    0.7769    0.0000 C   0  0
   -6.4841   -0.7230    0.0000 C   0  0
   -7.7883   -1.4640    0.0000 N   0  0
   -2.6004   -2.9949    0.0000 N   0  0
  1  2  1  0
  2  3  1  0
  3  4  2  0
  4  5  1  0
  5  6  1  0
  6  7  1  0
  7  8  1  0
  8  9  1  0
  9 10  1  0
  9 11  1  0
 11 12  1  0
 12  6  1  0
  5 13  2  0
 13 14  1  0
 14 15  2  0
 15  3  1  0
 15 16  1  0
 16 17  1  0
 17 18  2  0
 18 19  1  0
 19 20  2  0
 20 21  1  0
 20 22  1  0
 22 23  1  0
 23 24  1  0
 24 25  2  0
 25 26  1  0
 26 27  2  0
 27 28  1  0
 28 29  2  0
 29 24  1  0
 29 30  1  0
 22 31  2  0
 31 17  1  0
M  END
> <Name>
CHEMBL4216784

> <pChEMBL_Value>
5.94

$$$$
CHEMBL4215164
  SciTegic08122012322D

 36 39  0  0  0  0            999 V2000
    3.9068   -0.7607    0.0000 C   0  0
    2.6046   -1.5052    0.0000 O   0  0
    2.5973   -3.0060    0.0000 C   0  0
    3.8942   -3.7597    0.0000 C   0  0
    3.8899   -5.2597    0.0000 C   0  0
    5.1874   -6.0137    0.0000 N   0  0
    6.4899   -5.2696    0.0000 C   0  0
    7.7856   -6.0253    0.0000 C   0  0
    7.7789   -7.5253    0.0000 N   0  0
    9.0746   -8.2811    0.0000 C   0  0
    6.4766   -8.2695    0.0000 C   0  0
    5.1809   -7.5138    0.0000 C   0  0
    2.5887   -6.0060    0.0000 C   0  0
    1.2918   -5.2523    0.0000 C   0  0
    1.2961   -3.7523    0.0000 C   0  0
   -0.0031   -3.0008    0.0000 N   0  0
   -1.3039   -3.7494    0.0000 C   0  0
   -1.3092   -5.2494    0.0000 N   0  0
   -2.6108   -5.9949    0.0000 C   0  0
   -3.9072   -5.2404    0.0000 C   0  0
   -5.2089   -5.9859    0.0000 Cl  0  0
   -3.9020   -3.7404    0.0000 C   0  0
   -5.1977   -2.9829    0.0000 O   0  0
   -5.1903   -1.4821    0.0000 C   0  0
   -6.4841   -0.7230    0.0000 C   0  0
   -6.4738    0.7769    0.0000 C   0  0
   -5.1696    1.5179    0.0000 C   0  0
   -3.8758    0.7590    0.0000 C   0  0
   -2.5693    1.4977    0.0000 N   0  0
   -1.2759    0.7365    0.0000 C   0  0
   -1.2888   -0.7634    0.0000 O   0  0
    0.0306    1.4752    0.0000 C   0  0
    1.3240    0.7140    0.0000 C   0  0
    2.6297    1.4523    0.0000 O   0  0
   -3.8861   -0.7410    0.0000 C   0  0
   -2.6004   -2.9949    0.0000 N   0  0
  1  2  1  0
  2  3  1  0
  3  4  2  0
  4  5  1  0
  5  6  1  0
  6  7  1  0
  7  8  1  0
  8  9  1  0
  9 10  1  0
  9 11  1  0
 11 12  1  0
 12  6  1  0
  5 13  2  0
 13 14  1  0
 14 15  2  0
 15  3  1  0
 15 16  1  0
 16 17  1  0
 17 18  2  0
 18 19  1  0
 19 20  2  0
 20 21  1  0
 20 22  1  0
 22 23  1  0
 23 24  1  0
 24 25  2  0
 25 26  1  0
 26 27  2  0
 27 28  1  0
 28 29  1  0
 29 30  1  0
 30 31  2  0
 30 32  1  0
 32 33  1  0
 33 34  1  0
 28 35  2  0
 35 24  1  0
 22 36  2  0
 36 17  1  0
M  END
> <Name>
CHEMBL4215164

> <pChEMBL_Value>
5.93

$$$$
CHEMBL4207305
  SciTegic08122012322D

 35 38  0  0  0  0            999 V2000
    3.9068   -0.7607    0.0000 C   0  0
    2.6046   -1.5052    0.0000 O   0  0
    2.5973   -3.0060    0.0000 C   0  0
    3.8942   -3.7597    0.0000 C   0  0
    3.8899   -5.2597    0.0000 C   0  0
    5.1874   -6.0137    0.0000 N   0  0
    6.4899   -5.2696    0.0000 C   0  0
    7.7856   -6.0253    0.0000 C   0  0
    7.7789   -7.5253    0.0000 N   0  0
    9.0746   -8.2811    0.0000 C   0  0
    6.4766   -8.2695    0.0000 C   0  0
    5.1809   -7.5138    0.0000 C   0  0
    2.5887   -6.0060    0.0000 C   0  0
    1.2918   -5.2523    0.0000 C   0  0
    1.2961   -3.7523    0.0000 C   0  0
   -0.0031   -3.0008    0.0000 N   0  0
   -1.3039   -3.7494    0.0000 C   0  0
   -1.3092   -5.2494    0.0000 N   0  0
   -2.6108   -5.9949    0.0000 C   0  0
   -3.9072   -5.2404    0.0000 C   0  0
   -5.2089   -5.9859    0.0000 Cl  0  0
   -3.9020   -3.7404    0.0000 C   0  0
   -5.1977   -2.9829    0.0000 O   0  0
   -5.1903   -1.4821    0.0000 C   0  0
   -6.4841   -0.7230    0.0000 C   0  0
   -6.4738    0.7769    0.0000 C   0  0
   -5.1696    1.5179    0.0000 C   0  0
   -3.8758    0.7590    0.0000 C   0  0
   -2.5693    1.4977    0.0000 N   0  0
   -1.2759    0.7365    0.0000 C   0  0
   -1.2888   -0.7634    0.0000 O   0  0
    0.0306    1.4752    0.0000 C   0  0
    1.3233    0.7144    0.0000 O   0  0
   -3.8861   -0.7410    0.0000 C   0  0
   -2.6004   -2.9949    0.0000 N   0  0
  1  2  1  0
  2  3  1  0
  3  4  2  0
  4  5  1  0
  5  6  1  0
  6  7  1  0
  7  8  1  0
  8  9  1  0
  9 10  1  0
  9 11  1  0
 11 12  1  0
 12  6  1  0
  5 13  2  0
 13 14  1  0
 14 15  2  0
 15  3  1  0
 15 16  1  0
 16 17  1  0
 17 18  2  0
 18 19  1  0
 19 20  2  0
 20 21  1  0
 20 22  1  0
 22 23  1  0
 23 24  1  0
 24 25  2  0
 25 26  1  0
 26 27  2  0
 27 28  1  0
 28 29  1  0
 29 30  1  0
 30 31  2  0
 30 32  1  0
 32 33  1  0
 28 34  2  0
 34 24  1  0
 22 35  2  0
 35 17  1  0
M  END
> <Name>
CHEMBL4207305

> <pChEMBL_Value>
5.91

$$$$
CHEMBL4204937
  SciTegic08122012322D

 43 47  0  0  0  0            999 V2000
    3.9068   -0.7607    0.0000 C   0  0
    2.6046   -1.5052    0.0000 O   0  0
    2.5973   -3.0060    0.0000 C   0  0
    3.8942   -3.7597    0.0000 C   0  0
    3.8899   -5.2597    0.0000 C   0  0
    5.1874   -6.0137    0.0000 N   0  0
    6.4899   -5.2696    0.0000 C   0  0
    7.7856   -6.0253    0.0000 C   0  0
    7.7789   -7.5253    0.0000 N   0  0
    9.0746   -8.2811    0.0000 C   0  0
    6.4766   -8.2695    0.0000 C   0  0
    5.1809   -7.5138    0.0000 C   0  0
    2.5887   -6.0060    0.0000 C   0  0
    1.2918   -5.2523    0.0000 C   0  0
    1.2961   -3.7523    0.0000 C   0  0
   -0.0031   -3.0008    0.0000 N   0  0
   -1.3039   -3.7494    0.0000 C   0  0
   -1.3092   -5.2494    0.0000 N   0  0
   -2.6108   -5.9949    0.0000 C   0  0
   -3.9072   -5.2404    0.0000 C   0  0
   -5.2089   -5.9859    0.0000 Cl  0  0
   -3.9020   -3.7404    0.0000 C   0  0
   -5.1977   -2.9829    0.0000 O   0  0
   -5.1903   -1.4821    0.0000 C   0  0
   -6.4841   -0.7230    0.0000 C   0  0
   -6.4738    0.7769    0.0000 C   0  0
   -5.1696    1.5179    0.0000 C   0  0
   -3.8758    0.7590    0.0000 C   0  0
   -2.5693    1.4977    0.0000 N   0  0
   -1.2759    0.7365    0.0000 C   0  0
   -1.2888   -0.7634    0.0000 O   0  0
    0.0306    1.4752    0.0000 C   0  0
    1.3240    0.7140    0.0000 C   0  0
    2.6305    1.4527    0.0000 O   0  0
    3.9239    0.6915    0.0000 C   0  0
    5.2303    1.4302    0.0000 C   0  0
    6.5242    0.6713    0.0000 C   0  0
    7.8284    1.4123    0.0000 C   0  0
    7.8388    2.9122    0.0000 C   0  0
    6.5450    3.6712    0.0000 C   0  0
    5.2408    2.9303    0.0000 C   0  0
   -3.8861   -0.7410    0.0000 C   0  0
   -2.6004   -2.9949    0.0000 N   0  0
  1  2  1  0
  2  3  1  0
  3  4  2  0
  4  5  1  0
  5  6  1  0
  6  7  1  0
  7  8  1  0
  8  9  1  0
  9 10  1  0
  9 11  1  0
 11 12  1  0
 12  6  1  0
  5 13  2  0
 13 14  1  0
 14 15  2  0
 15  3  1  0
 15 16  1  0
 16 17  1  0
 17 18  2  0
 18 19  1  0
 19 20  2  0
 20 21  1  0
 20 22  1  0
 22 23  1  0
 23 24  1  0
 24 25  2  0
 25 26  1  0
 26 27  2  0
 27 28  1  0
 28 29  1  0
 29 30  1  0
 30 31  2  0
 30 32  1  0
 32 33  1  0
 33 34  1  0
 34 35  1  0
 35 36  1  0
 36 37  2  0
 37 38  1  0
 38 39  2  0
 39 40  1  0
 40 41  2  0
 41 36  1  0
 28 42  2  0
 42 24  1  0
 22 43  2  0
 43 17  1  0
M  END
> <Name>
CHEMBL4204937

> <pChEMBL_Value>
5.85

$$$$
CHEMBL4204596
  SciTegic08122012322D

 33 36  0  0  0  0            999 V2000
    3.8983   -0.7459    0.0000 C   0  0
    2.6003   -1.4977    0.0000 O   0  0
    1.2990   -0.7500    0.0000 C   0  0
    1.2990    0.7500    0.0000 C   0  0
    0.0000    1.5000    0.0000 C   0  0
    0.0000    3.0008    0.0000 N   0  0
    1.2978    3.7529    0.0000 C   0  0
    1.2954    5.2529    0.0000 C   0  0
   -0.0048    6.0009    0.0000 N   0  0
   -0.0072    7.5009    0.0000 C   0  0
   -1.3026    5.2488    0.0000 C   0  0
   -1.3002    3.7488    0.0000 C   0  0
   -1.2990    0.7500    0.0000 C   0  0
   -1.2990   -0.7500    0.0000 C   0  0
    0.0000   -1.5000    0.0000 C   0  0
   -0.0031   -3.0008    0.0000 N   0  0
   -1.3039   -3.7494    0.0000 C   0  0
   -1.3092   -5.2494    0.0000 N   0  0
   -2.6108   -5.9949    0.0000 C   0  0
   -3.9072   -5.2404    0.0000 C   0  0
   -5.2089   -5.9859    0.0000 Cl  0  0
   -3.9020   -3.7404    0.0000 C   0  0
   -5.1977   -2.9829    0.0000 O   0  0
   -5.1903   -1.4821    0.0000 C   0  0
   -3.8861   -0.7410    0.0000 C   0  0
   -3.8758    0.7590    0.0000 C   0  0
   -5.1696    1.5179    0.0000 C   0  0
   -6.4738    0.7769    0.0000 C   0  0
   -6.4841   -0.7230    0.0000 C   0  0
   -7.7906   -1.4617    0.0000 N   0  0
   -9.0840   -0.7004    0.0000 C   0  0
  -10.3767    0.0604    0.0000 S   0  0
   -2.6004   -2.9949    0.0000 N   0  0
  1  2  1  0
  2  3  1  0
  3  4  2  0
  4  5  1  0
  5  6  1  0
  6  7  1  0
  7  8  1  0
  8  9  1  0
  9 10  1  0
  9 11  1  0
 11 12  1  0
 12  6  1  0
  5 13  2  0
 13 14  1  0
 14 15  2  0
 15  3  1  0
 15 16  1  0
 16 17  1  0
 17 18  2  0
 18 19  1  0
 19 20  2  0
 20 21  1  0
 20 22  1  0
 22 23  1  0
 23 24  1  0
 24 25  2  0
 25 26  1  0
 26 27  2  0
 27 28  1  0
 28 29  2  0
 29 24  1  0
 29 30  1  0
 30 31  2  0
 31 32  2  0
 22 33  2  0
 33 17  1  0
M  END
> <Name>
CHEMBL4204596

> <pChEMBL_Value>
5.74

$$$$
CHEMBL4218320
  SciTegic08122012322D

 43 47  0  0  0  0            999 V2000
    3.8983   -0.7459    0.0000 C   0  0
    2.6003   -1.4977    0.0000 O   0  0
    1.2990   -0.7500    0.0000 C   0  0
    1.2990    0.7500    0.0000 C   0  0
    0.0000    1.5000    0.0000 C   0  0
    0.0000    3.0008    0.0000 N   0  0
    1.2978    3.7529    0.0000 C   0  0
    1.2954    5.2529    0.0000 C   0  0
   -0.0048    6.0009    0.0000 N   0  0
   -0.0072    7.5009    0.0000 C   0  0
   -1.3026    5.2488    0.0000 C   0  0
   -1.3002    3.7488    0.0000 C   0  0
   -1.2990    0.7500    0.0000 C   0  0
   -1.2990   -0.7500    0.0000 C   0  0
    0.0000   -1.5000    0.0000 C   0  0
   -0.0031   -3.0008    0.0000 N   0  0
   -1.3039   -3.7494    0.0000 C   0  0
   -1.3092   -5.2494    0.0000 N   0  0
   -2.6108   -5.9949    0.0000 C   0  0
   -3.9072   -5.2404    0.0000 C   0  0
   -5.2089   -5.9859    0.0000 Cl  0  0
   -3.9020   -3.7404    0.0000 C   0  0
   -5.1977   -2.9829    0.0000 O   0  0
   -5.1903   -1.4821    0.0000 C   0  0
   -3.8861   -0.7410    0.0000 C   0  0
   -3.8758    0.7590    0.0000 C   0  0
   -5.1696    1.5179    0.0000 C   0  0
   -6.4738    0.7769    0.0000 C   0  0
   -6.4841   -0.7230    0.0000 C   0  0
   -7.7906   -1.4617    0.0000 N   0  0
   -9.0840   -0.7004    0.0000 C   0  0
   -9.0710    0.7995    0.0000 O   0  0
  -10.3905   -1.4391    0.0000 C   0  0
  -11.6839   -0.6779    0.0000 C   0  0
  -12.9904   -1.4165    0.0000 O   0  0
  -14.2838   -0.6553    0.0000 C   0  0
  -15.5902   -1.3940    0.0000 C   0  0
  -16.8841   -0.6350    0.0000 C   0  0
  -18.1883   -1.3759    0.0000 C   0  0
  -18.1988   -2.8759    0.0000 C   0  0
  -16.9050   -3.6349    0.0000 C   0  0
  -15.6008   -2.8940    0.0000 C   0  0
   -2.6004   -2.9949    0.0000 N   0  0
  1  2  1  0
  2  3  1  0
  3  4  2  0
  4  5  1  0
  5  6  1  0
  6  7  1  0
  7  8  1  0
  8  9  1  0
  9 10  1  0
  9 11  1  0
 11 12  1  0
 12  6  1  0
  5 13  2  0
 13 14  1  0
 14 15  2  0
 15  3  1  0
 15 16  1  0
 16 17  1  0
 17 18  2  0
 18 19  1  0
 19 20  2  0
 20 21  1  0
 20 22  1  0
 22 23  1  0
 23 24  1  0
 24 25  2  0
 25 26  1  0
 26 27  2  0
 27 28  1  0
 28 29  2  0
 29 24  1  0
 29 30  1  0
 30 31  1  0
 31 32  2  0
 31 33  1  0
 33 34  1  0
 34 35  1  0
 35 36  1  0
 36 37  1  0
 37 38  2  0
 38 39  1  0
 39 40  2  0
 40 41  1  0
 41 42  2  0
 42 37  1  0
 22 43  2  0
 43 17  1  0
M  END
> <Name>
CHEMBL4218320

> <pChEMBL_Value>
5.70

$$$$
CHEMBL2408823
  SciTegic08122012322D

 49 54  0  0  0  0            999 V2000
    1.3097   -0.7480    0.0000 C   0  0
    2.6046   -1.5052    0.0000 O   0  0
    2.5973   -3.0060    0.0000 C   0  0
    3.8942   -3.7597    0.0000 C   0  0
    3.8899   -5.2597    0.0000 C   0  0
    5.1874   -6.0137    0.0000 N   0  0
    6.4899   -5.2696    0.0000 C   0  0
    7.7856   -6.0253    0.0000 C   0  0
    7.7789   -7.5253    0.0000 N   0  0
    8.6427   -8.0291    0.0000 C   0  0
    6.4766   -8.2695    0.0000 C   0  0
    5.1809   -7.5138    0.0000 C   0  0
    2.5887   -6.0060    0.0000 C   0  0
    1.2918   -5.2523    0.0000 C   0  0
    1.2961   -3.7523    0.0000 C   0  0
   -0.0031   -3.0008    0.0000 N   0  0
   -1.3039   -3.7494    0.0000 C   0  0
   -1.3092   -5.2494    0.0000 N   0  0
   -2.6108   -5.9949    0.0000 C   0  0
   -3.9072   -5.2404    0.0000 C   0  0
   -5.2089   -5.9859    0.0000 Cl  0  0
   -3.9020   -3.7404    0.0000 C   0  0
   -5.1977   -2.9829    0.0000 O   0  0
   -5.1903   -1.4821    0.0000 C   0  0
   -6.4841   -0.7230    0.0000 C   0  0
   -6.4738    0.7769    0.0000 C   0  0
   -5.1696    1.5179    0.0000 C   0  0
   -5.1561    3.0187    0.0000 C   0  0
   -3.8501    3.7583    0.0000 C   0  0
   -3.8367    5.2590    0.0000 C   0  0
   -2.5307    5.9986    0.0000 O   0  0
   -2.5173    7.4994    0.0000 C   0  0
   -3.7248    8.3676    0.0000 N   0  0
   -3.2514    9.7909    0.0000 O   0  0
   -1.7515    9.7805    0.0000 N   0  3
   -0.8614   10.9879    0.0000 O   0  5
   -1.2978    8.3508    0.0000 C   0  0
    0.1201    7.8671    0.0000 S   0  0
    0.4100    6.3953    0.0000 O   0  0
   -1.0093    6.8800    0.0000 O   0  0
    1.2506    8.8542    0.0000 C   0  0
    2.6700    8.3689    0.0000 C   0  0
    3.7999    9.3555    0.0000 C   0  0
    3.5105   10.8273    0.0000 C   0  0
    2.0911   11.3125    0.0000 C   0  0
    0.9612   10.3260    0.0000 C   0  0
   -3.8758    0.7590    0.0000 C   0  0
   -3.8861   -0.7410    0.0000 C   0  0
   -2.6004   -2.9949    0.0000 N   0  0
  1  2  1  0
  2  3  1  0
  3  4  2  0
  4  5  1  0
  5  6  1  0
  6  7  1  0
  7  8  1  0
  8  9  1  0
  9 10  1  0
  9 11  1  0
 11 12  1  0
 12  6  1  0
  5 13  2  0
 13 14  1  0
 14 15  2  0
 15  3  1  0
 15 16  1  0
 16 17  1  0
 17 18  2  0
 18 19  1  0
 19 20  2  0
 20 21  1  0
 20 22  1  0
 22 23  1  0
 23 24  1  0
 24 25  2  0
 25 26  1  0
 26 27  2  0
 27 28  1  0
 28 29  1  0
 29 30  1  0
 30 31  1  0
 31 32  1  0
 32 33  2  0
 33 34  1  0
 34 35  1  0
 35 36  1  0
 35 37  2  0
 37 32  1  0
 37 38  1  0
 38 39  2  0
 38 40  2  0
 38 41  1  0
 41 42  2  0
 42 43  1  0
 43 44  2  0
 44 45  1  0
 45 46  2  0
 46 41  1  0
 27 47  1  0
 47 48  2  0
 48 24  1  0
 22 49  2  0
 49 17  1  0
M  CHG  2  35   1  36  -1
M  END
> <Name>
CHEMBL2408823

> <pChEMBL_Value>
5.64

$$$$
CHEMBL3237936
  SciTegic08122012322D

 44 48  0  0  0  0            999 V2000
    3.9068   -0.7607    0.0000 C   0  0
    2.6046   -1.5052    0.0000 O   0  0
    2.5973   -3.0060    0.0000 C   0  0
    3.8942   -3.7597    0.0000 C   0  0
    3.8899   -5.2597    0.0000 C   0  0
    5.1874   -6.0137    0.0000 N   0  0
    6.4899   -5.2696    0.0000 C   0  0
    7.7856   -6.0253    0.0000 C   0  0
    7.7789   -7.5253    0.0000 N   0  0
    9.0746   -8.2811    0.0000 C   0  0
    6.4766   -8.2695    0.0000 C   0  0
    5.1809   -7.5138    0.0000 C   0  0
    2.5887   -6.0060    0.0000 C   0  0
    1.2918   -5.2523    0.0000 C   0  0
    1.2961   -3.7523    0.0000 C   0  0
   -0.0031   -3.0008    0.0000 N   0  0
   -1.3039   -3.7494    0.0000 C   0  0
   -1.3092   -5.2494    0.0000 N   0  0
   -2.6108   -5.9949    0.0000 C   0  0
   -3.9072   -5.2404    0.0000 C   0  0
   -5.2089   -5.9859    0.0000 Cl  0  0
   -3.9020   -3.7404    0.0000 C   0  0
   -5.1977   -2.9829    0.0000 O   0  0
   -5.1903   -1.4821    0.0000 C   0  0
   -6.4841   -0.7230    0.0000 C   0  0
   -6.4738    0.7769    0.0000 C   0  0
   -5.1696    1.5179    0.0000 C   0  0
   -3.8758    0.7590    0.0000 C   0  0
   -2.5693    1.4977    0.0000 N   0  0
   -1.2759    0.7365    0.0000 C   0  0
   -1.2888   -0.7634    0.0000 O   0  0
    0.0306    1.4752    0.0000 C   0  0
    1.3240    0.7140    0.0000 C   0  0
    2.6305    1.4527    0.0000 N   0  0
    3.9243    0.6938    0.0000 C   0  0
    5.2285    1.4348    0.0000 C   0  0
    5.2389    2.9347    0.0000 N   0  0
    6.5423    3.6788    0.0000 C   0  0
    6.5506    5.1796    0.0000 C   0  0
    7.8533    5.9233    0.0000 O   0  0
    3.9451    3.6937    0.0000 C   0  0
    2.6409    2.9528    0.0000 C   0  0
   -3.8861   -0.7410    0.0000 C   0  0
   -2.6004   -2.9949    0.0000 N   0  0
  1  2  1  0
  2  3  1  0
  3  4  2  0
  4  5  1  0
  5  6  1  0
  6  7  1  0
  7  8  1  0
  8  9  1  0
  9 10  1  0
  9 11  1  0
 11 12  1  0
 12  6  1  0
  5 13  2  0
 13 14  1  0
 14 15  2  0
 15  3  1  0
 15 16  1  0
 16 17  1  0
 17 18  2  0
 18 19  1  0
 19 20  2  0
 20 21  1  0
 20 22  1  0
 22 23  1  0
 23 24  1  0
 24 25  2  0
 25 26  1  0
 26 27  2  0
 27 28  1  0
 28 29  1  0
 29 30  1  0
 30 31  2  0
 30 32  1  0
 32 33  1  0
 33 34  1  0
 34 35  1  0
 35 36  1  0
 36 37  1  0
 37 38  1  0
 38 39  1  0
 39 40  1  0
 37 41  1  0
 41 42  1  0
 42 34  1  0
 28 43  2  0
 43 24  1  0
 22 44  2  0
 44 17  1  0
M  END
> <Name>
CHEMBL3237936

> <pChEMBL_Value>
5.62

$$$$
CHEMBL4213082
  SciTegic08122012322D

 35 38  0  0  0  0            999 V2000
    3.8912   -5.2570    0.0000 C   0  0
    3.8933   -3.7570    0.0000 C   0  0
    2.5951   -3.0039    0.0000 C   0  0
    1.2948   -3.7516    0.0000 O   0  0
    2.5973   -1.5031    0.0000 N   0  0
    1.2990   -0.7500    0.0000 C   0  0
    1.2990    0.7500    0.0000 C   0  0
    0.0000    1.5000    0.0000 C   0  0
   -1.2990    0.7500    0.0000 C   0  0
   -2.6003    1.4977    0.0000 O   0  0
   -3.8990    0.7455    0.0000 C   0  0
   -3.8939   -0.7546    0.0000 N   0  0
   -5.1903   -1.5091    0.0000 C   0  0
   -5.1882   -3.0099    0.0000 N   0  0
   -6.4865   -3.7630    0.0000 C   0  0
   -7.7856   -3.0130    0.0000 C   0  0
   -9.0846   -3.7630    0.0000 C   0  0
   -9.0846   -5.2630    0.0000 C   0  0
  -10.3843   -6.0134    0.0000 N   0  0
  -11.6846   -5.2655    0.0000 C   0  0
  -12.9825   -6.0176    0.0000 C   0  0
  -12.9801   -7.5176    0.0000 N   0  0
  -14.2779   -8.2696    0.0000 C   0  0
  -11.6799   -8.2655    0.0000 C   0  0
  -10.3820   -7.5134    0.0000 C   0  0
   -7.7856   -6.0130    0.0000 C   0  0
   -6.4866   -5.2630    0.0000 C   0  0
   -5.1884   -6.0161    0.0000 O   0  0
   -5.1905   -7.5161    0.0000 C   0  0
   -6.4920   -0.7636    0.0000 N   0  0
   -6.4972    0.7364    0.0000 C   0  0
   -5.2007    1.4909    0.0000 C   0  0
   -5.2060    2.9909    0.0000 Cl  0  0
   -1.2990   -0.7500    0.0000 C   0  0
    0.0000   -1.5000    0.0000 C   0  0
  1  2  2  0
  2  3  1  0
  3  4  2  0
  3  5  1  0
  5  6  1  0
  6  7  2  0
  7  8  1  0
  8  9  2  0
  9 10  1  0
 10 11  1  0
 11 12  2  0
 12 13  1  0
 13 14  1  0
 14 15  1  0
 15 16  2  0
 16 17  1  0
 17 18  2  0
 18 19  1  0
 19 20  1  0
 20 21  1  0
 21 22  1  0
 22 23  1  0
 22 24  1  0
 24 25  1  0
 25 19  1  0
 18 26  1  0
 26 27  2  0
 27 15  1  0
 27 28  1  0
 28 29  1  0
 13 30  2  0
 30 31  1  0
 31 32  2  0
 32 11  1  0
 32 33  1  0
  9 34  1  0
 34 35  2  0
 35  6  1  0
M  END
> <Name>
CHEMBL4213082

> <pChEMBL_Value>
5.61

$$$$
CHEMBL2408824
  SciTegic08122012322D

 48 53  0  0  0  0            999 V2000
    3.9068   -0.7607    0.0000 C   0  0
    2.6046   -1.5052    0.0000 O   0  0
    2.5973   -3.0060    0.0000 C   0  0
    3.8942   -3.7597    0.0000 C   0  0
    3.8899   -5.2597    0.0000 C   0  0
    5.1874   -6.0137    0.0000 N   0  0
    6.4899   -5.2696    0.0000 C   0  0
    7.7856   -6.0253    0.0000 C   0  0
    7.7789   -7.5253    0.0000 N   0  0
    9.0746   -8.2811    0.0000 C   0  0
    6.4766   -8.2695    0.0000 C   0  0
    5.1809   -7.5138    0.0000 C   0  0
    2.5887   -6.0060    0.0000 C   0  0
    1.2918   -5.2523    0.0000 C   0  0
    1.2961   -3.7523    0.0000 C   0  0
   -0.0031   -3.0008    0.0000 N   0  0
   -1.3039   -3.7494    0.0000 C   0  0
   -1.3092   -5.2494    0.0000 N   0  0
   -2.6108   -5.9949    0.0000 C   0  0
   -3.9072   -5.2404    0.0000 C   0  0
   -5.2089   -5.9859    0.0000 Cl  0  0
   -3.9020   -3.7404    0.0000 C   0  0
   -5.1977   -2.9829    0.0000 O   0  0
   -5.1903   -1.4821    0.0000 C   0  0
   -6.4841   -0.7230    0.0000 C   0  0
   -6.4738    0.7769    0.0000 C   0  0
   -5.1696    1.5179    0.0000 C   0  0
   -5.1561    3.0187    0.0000 C   0  0
   -3.8501    3.7583    0.0000 C   0  0
   -3.8367    5.2590    0.0000 O   0  0
   -2.5307    5.9986    0.0000 C   0  0
   -1.1858    5.3635    0.0000 N   0  0
   -0.1706    6.4678    0.0000 O   0  0
   -0.9071    7.7745    0.0000 N   0  3
   -0.2828    9.1384    0.0000 O   0  5
   -2.3775    7.4779    0.0000 C   0  0
   -3.4881    8.4834    0.0000 S   0  0
   -4.9158    8.0233    0.0000 O   0  0
   -3.8037    7.0170    0.0000 O   0  0
   -3.1731    9.9508    0.0000 C   0  0
   -1.7455   10.4114    0.0000 C   0  0
   -1.4307   11.8780    0.0000 C   0  0
   -2.5433   12.8840    0.0000 C   0  0
   -3.9709   12.4234    0.0000 C   0  0
   -4.2857   10.9568    0.0000 C   0  0
   -3.8758    0.7590    0.0000 C   0  0
   -3.8861   -0.7410    0.0000 C   0  0
   -2.6004   -2.9949    0.0000 N   0  0
  1  2  1  0
  2  3  1  0
  3  4  2  0
  4  5  1  0
  5  6  1  0
  6  7  1  0
  7  8  1  0
  8  9  1  0
  9 10  1  0
  9 11  1  0
 11 12  1  0
 12  6  1  0
  5 13  2  0
 13 14  1  0
 14 15  2  0
 15  3  1  0
 15 16  1  0
 16 17  1  0
 17 18  2  0
 18 19  1  0
 19 20  2  0
 20 21  1  0
 20 22  1  0
 22 23  1  0
 23 24  1  0
 24 25  2  0
 25 26  1  0
 26 27  2  0
 27 28  1  0
 28 29  1  0
 29 30  1  0
 30 31  1  0
 31 32  2  0
 32 33  1  0
 33 34  1  0
 34 35  1  0
 34 36  2  0
 36 31  1  0
 36 37  1  0
 37 38  2  0
 37 39  2  0
 37 40  1  0
 40 41  2  0
 41 42  1  0
 42 43  2  0
 43 44  1  0
 44 45  2  0
 45 40  1  0
 27 46  1  0
 46 47  2  0
 47 24  1  0
 22 48  2  0
 48 17  1  0
M  CHG  2  34   1  35  -1
M  END
> <Name>
CHEMBL2408824

> <pChEMBL_Value>
5.53

$$$$
CHEMBL4203804
  SciTegic08122012322D

 34 37  0  0  0  0            999 V2000
    3.8983   -0.7459    0.0000 C   0  0
    2.6003   -1.4977    0.0000 O   0  0
    1.2990   -0.7500    0.0000 C   0  0
    1.2990    0.7500    0.0000 C   0  0
    0.0000    1.5000    0.0000 C   0  0
    0.0000    3.0008    0.0000 N   0  0
    1.2978    3.7529    0.0000 C   0  0
    1.2954    5.2529    0.0000 C   0  0
   -0.0048    6.0009    0.0000 N   0  0
   -0.0072    7.5009    0.0000 C   0  0
   -1.3026    5.2488    0.0000 C   0  0
   -1.3002    3.7488    0.0000 C   0  0
   -1.2990    0.7500    0.0000 C   0  0
   -1.2990   -0.7500    0.0000 C   0  0
    0.0000   -1.5000    0.0000 C   0  0
   -0.0031   -3.0008    0.0000 N   0  0
   -1.3039   -3.7494    0.0000 C   0  0
   -1.3092   -5.2494    0.0000 N   0  0
   -2.6108   -5.9949    0.0000 C   0  0
   -3.9072   -5.2404    0.0000 C   0  0
   -5.2089   -5.9859    0.0000 Cl  0  0
   -3.9020   -3.7404    0.0000 C   0  0
   -5.1977   -2.9829    0.0000 O   0  0
   -5.1903   -1.4821    0.0000 C   0  0
   -6.4841   -0.7230    0.0000 C   0  0
   -6.4738    0.7769    0.0000 C   0  0
   -5.1696    1.5179    0.0000 C   0  0
   -5.1561    3.0187    0.0000 N   0  0
   -3.8501    3.7583    0.0000 C   0  0
   -2.5576    2.9971    0.0000 C   0  0
   -3.8367    5.2582    0.0000 O   0  0
   -3.8758    0.7590    0.0000 C   0  0
   -3.8861   -0.7410    0.0000 C   0  0
   -2.6004   -2.9949    0.0000 N   0  0
  1  2  1  0
  2  3  1  0
  3  4  2  0
  4  5  1  0
  5  6  1  0
  6  7  1  0
  7  8  1  0
  8  9  1  0
  9 10  1  0
  9 11  1  0
 11 12  1  0
 12  6  1  0
  5 13  2  0
 13 14  1  0
 14 15  2  0
 15  3  1  0
 15 16  1  0
 16 17  1  0
 17 18  2  0
 18 19  1  0
 19 20  2  0
 20 21  1  0
 20 22  1  0
 22 23  1  0
 23 24  1  0
 24 25  2  0
 25 26  1  0
 26 27  2  0
 27 28  1  0
 28 29  1  0
 29 30  1  0
 29 31  2  0
 27 32  1  0
 32 33  2  0
 33 24  1  0
 22 34  2  0
 34 17  1  0
M  END
> <Name>
CHEMBL4203804

> <pChEMBL_Value>
5.51

$$$$
CHEMBL4210744
  SciTegic08122012322D

 31 34  0  0  0  0            999 V2000
    3.8983   -0.7459    0.0000 C   0  0
    2.6003   -1.4977    0.0000 O   0  0
    1.2990   -0.7500    0.0000 C   0  0
    1.2990    0.7500    0.0000 C   0  0
    0.0000    1.5000    0.0000 C   0  0
    0.0000    3.0008    0.0000 N   0  0
    1.2978    3.7529    0.0000 C   0  0
    1.2954    5.2529    0.0000 C   0  0
   -0.0048    6.0009    0.0000 N   0  0
   -0.0072    7.5009    0.0000 C   0  0
   -1.3026    5.2488    0.0000 C   0  0
   -1.3002    3.7488    0.0000 C   0  0
   -1.2990    0.7500    0.0000 C   0  0
   -1.2990   -0.7500    0.0000 C   0  0
    0.0000   -1.5000    0.0000 C   0  0
   -0.0031   -3.0008    0.0000 N   0  0
   -1.3039   -3.7494    0.0000 C   0  0
   -1.3092   -5.2494    0.0000 N   0  0
   -2.6108   -5.9949    0.0000 C   0  0
   -3.9072   -5.2404    0.0000 C   0  0
   -5.2089   -5.9859    0.0000 Cl  0  0
   -3.9020   -3.7404    0.0000 C   0  0
   -5.1977   -2.9829    0.0000 O   0  0
   -5.1903   -1.4821    0.0000 C   0  0
   -6.4841   -0.7230    0.0000 C   0  0
   -6.4738    0.7769    0.0000 C   0  0
   -5.1696    1.5179    0.0000 C   0  0
   -3.8758    0.7590    0.0000 C   0  0
   -2.5716    1.5000    0.0000 N   0  0
   -3.8861   -0.7410    0.0000 C   0  0
   -2.6004   -2.9949    0.0000 N   0  0
  1  2  1  0
  2  3  1  0
  3  4  2  0
  4  5  1  0
  5  6  1  0
  6  7  1  0
  7  8  1  0
  8  9  1  0
  9 10  1  0
  9 11  1  0
 11 12  1  0
 12  6  1  0
  5 13  2  0
 13 14  1  0
 14 15  2  0
 15  3  1  0
 15 16  1  0
 16 17  1  0
 17 18  2  0
 18 19  1  0
 19 20  2  0
 20 21  1  0
 20 22  1  0
 22 23  1  0
 23 24  1  0
 24 25  2  0
 25 26  1  0
 26 27  2  0
 27 28  1  0
 28 29  1  0
 28 30  2  0
 30 24  1  0
 22 31  2  0
 31 17  1  0
M  END
> <Name>
CHEMBL4210744

> <pChEMBL_Value>
5.50

$$$$
CHEMBL2408826
  SciTegic08122012322D

 47 52  0  0  0  0            999 V2000
    3.9068   -0.7607    0.0000 C   0  0
    2.6046   -1.5052    0.0000 O   0  0
    2.5973   -3.0060    0.0000 C   0  0
    3.8942   -3.7597    0.0000 C   0  0
    3.8899   -5.2597    0.0000 C   0  0
    5.1874   -6.0137    0.0000 N   0  0
    6.4899   -5.2696    0.0000 C   0  0
    7.7856   -6.0253    0.0000 C   0  0
    7.7789   -7.5253    0.0000 C   0  0
    9.0746   -8.2811    0.0000 O   0  0
    6.4766   -8.2695    0.0000 C   0  0
    5.1809   -7.5138    0.0000 C   0  0
    2.5887   -6.0060    0.0000 C   0  0
    1.2918   -5.2523    0.0000 C   0  0
    1.2961   -3.7523    0.0000 C   0  0
   -0.0031   -3.0008    0.0000 N   0  0
   -1.3039   -3.7494    0.0000 C   0  0
   -1.3092   -5.2494    0.0000 N   0  0
   -2.6108   -5.9949    0.0000 C   0  0
   -3.9072   -5.2404    0.0000 C   0  0
   -5.2089   -5.9859    0.0000 Cl  0  0
   -3.9020   -3.7404    0.0000 C   0  0
   -5.1977   -2.9829    0.0000 O   0  0
   -5.1903   -1.4821    0.0000 C   0  0
   -6.4841   -0.7230    0.0000 C   0  0
   -6.4738    0.7769    0.0000 C   0  0
   -5.1696    1.5179    0.0000 C   0  0
   -5.1561    3.0187    0.0000 C   0  0
   -3.8501    3.7583    0.0000 O   0  0
   -3.8367    5.2590    0.0000 C   0  0
   -5.0443    6.1272    0.0000 N   0  0
   -4.5709    7.5506    0.0000 O   0  0
   -3.0709    7.5402    0.0000 N   0  3
   -2.1808    8.7476    0.0000 O   0  5
   -2.6173    6.1104    0.0000 C   0  0
   -1.1993    5.6267    0.0000 S   0  0
   -0.9094    4.1550    0.0000 O   0  0
   -2.3288    4.6396    0.0000 O   0  0
   -0.0688    6.6138    0.0000 C   0  0
    1.3506    6.1286    0.0000 C   0  0
    2.4805    7.1152    0.0000 C   0  0
    2.1910    8.5870    0.0000 C   0  0
    0.7717    9.0722    0.0000 C   0  0
   -0.3582    8.0857    0.0000 C   0  0
   -3.8758    0.7590    0.0000 C   0  0
   -3.8861   -0.7410    0.0000 C   0  0
   -2.6004   -2.9949    0.0000 N   0  0
  1  2  1  0
  2  3  1  0
  3  4  2  0
  4  5  1  0
  5  6  1  0
  6  7  1  0
  7  8  1  0
  8  9  1  0
  9 10  1  0
  9 11  1  0
 11 12  1  0
 12  6  1  0
  5 13  2  0
 13 14  1  0
 14 15  2  0
 15  3  1  0
 15 16  1  0
 16 17  1  0
 17 18  2  0
 18 19  1  0
 19 20  2  0
 20 21  1  0
 20 22  1  0
 22 23  1  0
 23 24  1  0
 24 25  2  0
 25 26  1  0
 26 27  2  0
 27 28  1  0
 28 29  1  0
 29 30  1  0
 30 31  2  0
 31 32  1  0
 32 33  1  0
 33 34  1  0
 33 35  2  0
 35 30  1  0
 35 36  1  0
 36 37  2  0
 36 38  2  0
 36 39  1  0
 39 40  2  0
 40 41  1  0
 41 42  2  0
 42 43  1  0
 43 44  2  0
 44 39  1  0
 27 45  1  0
 45 46  2  0
 46 24  1  0
 22 47  2  0
 47 17  1  0
M  CHG  2  33   1  34  -1
M  END
> <Name>
CHEMBL2408826

> <pChEMBL_Value>
5.50

$$$$
CHEMBL4217686
  SciTegic08122012322D

 36 39  0  0  0  0            999 V2000
    3.8983   -0.7459    0.0000 C   0  0
    2.6003   -1.4977    0.0000 O   0  0
    1.2990   -0.7500    0.0000 C   0  0
    1.2990    0.7500    0.0000 C   0  0
    0.0000    1.5000    0.0000 C   0  0
    0.0000    3.0008    0.0000 N   0  0
    1.2978    3.7529    0.0000 C   0  0
    1.2954    5.2529    0.0000 C   0  0
   -0.0048    6.0009    0.0000 N   0  0
   -0.0072    7.5009    0.0000 C   0  0
   -1.3026    5.2488    0.0000 C   0  0
   -1.3002    3.7488    0.0000 C   0  0
   -1.2990    0.7500    0.0000 C   0  0
   -1.2990   -0.7500    0.0000 C   0  0
    0.0000   -1.5000    0.0000 C   0  0
   -0.0031   -3.0008    0.0000 N   0  0
   -1.3039   -3.7494    0.0000 C   0  0
   -1.3092   -5.2494    0.0000 N   0  0
   -2.6108   -5.9949    0.0000 C   0  0
   -3.9072   -5.2404    0.0000 C   0  0
   -5.2089   -5.9859    0.0000 Cl  0  0
   -3.9020   -3.7404    0.0000 C   0  0
   -5.1977   -2.9829    0.0000 O   0  0
   -5.1903   -1.4821    0.0000 C   0  0
   -6.4841   -0.7230    0.0000 C   0  0
   -6.4738    0.7769    0.0000 C   0  0
   -5.1696    1.5179    0.0000 C   0  0
   -5.1561    3.0187    0.0000 N   0  0
   -3.8501    3.7583    0.0000 C   0  0
   -2.5576    2.9971    0.0000 O   0  0
   -3.8367    5.2590    0.0000 C   0  0
   -2.5307    5.9986    0.0000 C   0  0
   -2.5173    7.4985    0.0000 O   0  0
   -3.8758    0.7590    0.0000 C   0  0
   -3.8861   -0.7410    0.0000 C   0  0
   -2.6004   -2.9949    0.0000 N   0  0
  1  2  1  0
  2  3  1  0
  3  4  2  0
  4  5  1  0
  5  6  1  0
  6  7  1  0
  7  8  1  0
  8  9  1  0
  9 10  1  0
  9 11  1  0
 11 12  1  0
 12  6  1  0
  5 13  2  0
 13 14  1  0
 14 15  2  0
 15  3  1  0
 15 16  1  0
 16 17  1  0
 17 18  2  0
 18 19  1  0
 19 20  2  0
 20 21  1  0
 20 22  1  0
 22 23  1  0
 23 24  1  0
 24 25  2  0
 25 26  1  0
 26 27  2  0
 27 28  1  0
 28 29  1  0
 29 30  2  0
 29 31  1  0
 31 32  1  0
 32 33  1  0
 27 34  1  0
 34 35  2  0
 35 24  1  0
 22 36  2  0
 36 17  1  0
M  END
> <Name>
CHEMBL4217686

> <pChEMBL_Value>
5.49

$$$$
CHEMBL3425671
  SciTegic08122012322D

 34 37  0  0  0  0            999 V2000
    3.9068   -0.7607    0.0000 C   0  0
    2.6046   -1.5052    0.0000 O   0  0
    2.5973   -3.0060    0.0000 C   0  0
    3.8942   -3.7597    0.0000 C   0  0
    3.8899   -5.2597    0.0000 C   0  0
    5.1874   -6.0137    0.0000 N   0  0
    6.4899   -5.2696    0.0000 C   0  0
    7.7856   -6.0253    0.0000 C   0  0
    7.7789   -7.5253    0.0000 N   0  0
    9.0746   -8.2811    0.0000 C   0  0
    6.4766   -8.2695    0.0000 C   0  0
    5.1809   -7.5138    0.0000 C   0  0
    2.5887   -6.0060    0.0000 C   0  0
    1.2918   -5.2523    0.0000 C   0  0
    1.2961   -3.7523    0.0000 C   0  0
   -0.0031   -3.0008    0.0000 N   0  0
   -1.3039   -3.7494    0.0000 C   0  0
   -1.3092   -5.2494    0.0000 N   0  0
   -2.6108   -5.9949    0.0000 C   0  0
   -3.9072   -5.2404    0.0000 C   0  0
   -5.2089   -5.9859    0.0000 Cl  0  0
   -3.9020   -3.7404    0.0000 C   0  0
   -5.1977   -2.9829    0.0000 O   0  0
   -5.1903   -1.4821    0.0000 C   0  0
   -6.4841   -0.7230    0.0000 C   0  0
   -6.4738    0.7769    0.0000 C   0  0
   -5.1696    1.5179    0.0000 C   0  0
   -3.8758    0.7590    0.0000 C   0  0
   -2.5693    1.4977    0.0000 N   0  0
   -1.2759    0.7365    0.0000 C   0  0
   -1.2888   -0.7634    0.0000 C   0  0
    0.0299    1.4748    0.0000 O   0  0
   -3.8861   -0.7410    0.0000 C   0  0
   -2.6004   -2.9949    0.0000 N   0  0
  1  2  1  0
  2  3  1  0
  3  4  2  0
  4  5  1  0
  5  6  1  0
  6  7  1  0
  7  8  1  0
  8  9  1  0
  9 10  1  0
  9 11  1  0
 11 12  1  0
 12  6  1  0
  5 13  2  0
 13 14  1  0
 14 15  2  0
 15  3  1  0
 15 16  1  0
 16 17  1  0
 17 18  2  0
 18 19  1  0
 19 20  2  0
 20 21  1  0
 20 22  1  0
 22 23  1  0
 23 24  1  0
 24 25  2  0
 25 26  1  0
 26 27  2  0
 27 28  1  0
 28 29  1  0
 29 30  1  0
 30 31  1  0
 30 32  2  0
 28 33  2  0
 33 24  1  0
 22 34  2  0
 34 17  1  0
M  END
> <Name>
CHEMBL3425671

> <pChEMBL_Value>
5.49

$$$$
CHEMBL4202955
  SciTegic08122012322D

 39 42  0  0  0  0            999 V2000
    1.3097   -0.7480    0.0000 C   0  0
    2.6046   -1.5052    0.0000 O   0  0
    2.5973   -3.0060    0.0000 C   0  0
    3.8942   -3.7597    0.0000 C   0  0
    3.8899   -5.2597    0.0000 C   0  0
    5.1874   -6.0137    0.0000 N   0  0
    6.4899   -5.2696    0.0000 C   0  0
    7.7856   -6.0253    0.0000 C   0  0
    7.7789   -7.5253    0.0000 N   0  0
    9.0746   -8.2811    0.0000 C   0  0
    6.4766   -8.2695    0.0000 C   0  0
    5.1809   -7.5138    0.0000 C   0  0
    2.5887   -6.0060    0.0000 C   0  0
    1.2918   -5.2523    0.0000 C   0  0
    1.2961   -3.7523    0.0000 C   0  0
   -0.0031   -3.0008    0.0000 N   0  0
   -1.3039   -3.7494    0.0000 C   0  0
   -1.3092   -5.2494    0.0000 N   0  0
   -2.6108   -5.9949    0.0000 C   0  0
   -3.9072   -5.2404    0.0000 C   0  0
   -5.2089   -5.9859    0.0000 Cl  0  0
   -3.9020   -3.7404    0.0000 C   0  0
   -5.1977   -2.9829    0.0000 O   0  0
   -5.1903   -1.4821    0.0000 C   0  0
   -6.4841   -0.7230    0.0000 C   0  0
   -6.4738    0.7769    0.0000 C   0  0
   -5.1696    1.5179    0.0000 C   0  0
   -3.8758    0.7590    0.0000 C   0  0
   -2.5693    1.4977    0.0000 N   0  0
   -1.2759    0.7365    0.0000 C   0  0
   -1.2888   -0.7634    0.0000 O   0  0
    0.0306    1.4752    0.0000 C   0  0
    1.3240    0.7140    0.0000 C   0  0
    2.6305    1.4527    0.0000 C   0  0
    3.9239    0.6915    0.0000 N   0  0
    5.2296    1.4298    0.0000 C   0  0
    3.9109   -0.8084    0.0000 C   0  0
   -3.8861   -0.7410    0.0000 C   0  0
   -2.6004   -2.9949    0.0000 N   0  0
  1  2  1  0
  2  3  1  0
  3  4  2  0
  4  5  1  0
  5  6  1  0
  6  7  1  0
  7  8  1  0
  8  9  1  0
  9 10  1  0
  9 11  1  0
 11 12  1  0
 12  6  1  0
  5 13  2  0
 13 14  1  0
 14 15  2  0
 15  3  1  0
 15 16  1  0
 16 17  1  0
 17 18  2  0
 18 19  1  0
 19 20  2  0
 20 21  1  0
 20 22  1  0
 22 23  1  0
 23 24  1  0
 24 25  2  0
 25 26  1  0
 26 27  2  0
 27 28  1  0
 28 29  1  0
 29 30  1  0
 30 31  2  0
 30 32  1  0
 32 33  2  0
 33 34  1  0
 34 35  1  0
 35 36  1  0
 35 37  1  0
 28 38  2  0
 38 24  1  0
 22 39  2  0
 39 17  1  0
M  END
> <Name>
CHEMBL4202955

> <pChEMBL_Value>
5.42

$$$$
CHEMBL4216265
  SciTegic08122012322D

 34 37  0  0  0  0            999 V2000
    3.8983   -0.7459    0.0000 C   0  0
    2.6003   -1.4977    0.0000 O   0  0
    1.2990   -0.7500    0.0000 C   0  0
    1.2990    0.7500    0.0000 C   0  0
    0.0000    1.5000    0.0000 C   0  0
    0.0000    3.0008    0.0000 N   0  0
    1.2978    3.7529    0.0000 C   0  0
    1.2954    5.2529    0.0000 C   0  0
   -0.0048    6.0009    0.0000 N   0  0
   -0.0072    7.5009    0.0000 C   0  0
   -1.3026    5.2488    0.0000 C   0  0
   -1.3002    3.7488    0.0000 C   0  0
   -1.2990    0.7500    0.0000 C   0  0
   -1.2990   -0.7500    0.0000 C   0  0
    0.0000   -1.5000    0.0000 C   0  0
   -0.0031   -3.0008    0.0000 N   0  0
   -1.3039   -3.7494    0.0000 C   0  0
   -1.3092   -5.2494    0.0000 N   0  0
   -2.6108   -5.9949    0.0000 C   0  0
   -3.9072   -5.2404    0.0000 C   0  0
   -5.2089   -5.9859    0.0000 Cl  0  0
   -3.9020   -3.7404    0.0000 C   0  0
   -5.1977   -2.9829    0.0000 O   0  0
   -5.1903   -1.4821    0.0000 C   0  0
   -3.8861   -0.7410    0.0000 C   0  0
   -3.8758    0.7590    0.0000 C   0  0
   -5.1696    1.5179    0.0000 C   0  0
   -6.4738    0.7769    0.0000 C   0  0
   -6.4841   -0.7230    0.0000 C   0  0
   -7.7906   -1.4617    0.0000 N   0  0
   -9.0840   -0.7004    0.0000 C   0  0
   -9.0710    0.7995    0.0000 C   0  0
  -10.3898   -1.4387    0.0000 O   0  0
   -2.6004   -2.9949    0.0000 N   0  0
  1  2  1  0
  2  3  1  0
  3  4  2  0
  4  5  1  0
  5  6  1  0
  6  7  1  0
  7  8  1  0
  8  9  1  0
  9 10  1  0
  9 11  1  0
 11 12  1  0
 12  6  1  0
  5 13  2  0
 13 14  1  0
 14 15  2  0
 15  3  1  0
 15 16  1  0
 16 17  1  0
 17 18  2  0
 18 19  1  0
 19 20  2  0
 20 21  1  0
 20 22  1  0
 22 23  1  0
 23 24  1  0
 24 25  2  0
 25 26  1  0
 26 27  2  0
 27 28  1  0
 28 29  2  0
 29 24  1  0
 29 30  1  0
 30 31  1  0
 31 32  1  0
 31 33  2  0
 22 34  2  0
 34 17  1  0
M  END
> <Name>
CHEMBL4216265

> <pChEMBL_Value>
5.38

$$$$
CHEMBL4218052
  SciTegic08122012322D

 33 36  0  0  0  0            999 V2000
    3.9068   -0.7607    0.0000 C   0  0
    2.6046   -1.5052    0.0000 O   0  0
    2.5973   -3.0060    0.0000 C   0  0
    3.8942   -3.7597    0.0000 C   0  0
    3.8899   -5.2597    0.0000 C   0  0
    5.1874   -6.0137    0.0000 N   0  0
    6.4899   -5.2696    0.0000 C   0  0
    7.7856   -6.0253    0.0000 C   0  0
    7.7789   -7.5253    0.0000 N   0  0
    9.0746   -8.2811    0.0000 C   0  0
    6.4766   -8.2695    0.0000 C   0  0
    5.1809   -7.5138    0.0000 C   0  0
    2.5887   -6.0060    0.0000 C   0  0
    1.2918   -5.2523    0.0000 C   0  0
    1.2961   -3.7523    0.0000 C   0  0
   -0.0031   -3.0008    0.0000 N   0  0
   -1.3039   -3.7494    0.0000 C   0  0
   -1.3092   -5.2494    0.0000 N   0  0
   -2.6108   -5.9949    0.0000 C   0  0
   -3.9072   -5.2404    0.0000 C   0  0
   -5.2089   -5.9859    0.0000 Cl  0  0
   -3.9020   -3.7404    0.0000 C   0  0
   -5.1977   -2.9829    0.0000 O   0  0
   -5.1903   -1.4821    0.0000 C   0  0
   -6.4841   -0.7230    0.0000 C   0  0
   -6.4738    0.7769    0.0000 C   0  0
   -5.1696    1.5179    0.0000 C   0  0
   -3.8758    0.7590    0.0000 C   0  0
   -2.5693    1.4977    0.0000 N   0  0
   -1.2759    0.7365    0.0000 C   0  0
    0.0169   -0.0243    0.0000 S   0  0
   -3.8861   -0.7410    0.0000 C   0  0
   -2.6004   -2.9949    0.0000 N   0  0
  1  2  1  0
  2  3  1  0
  3  4  2  0
  4  5  1  0
  5  6  1  0
  6  7  1  0
  7  8  1  0
  8  9  1  0
  9 10  1  0
  9 11  1  0
 11 12  1  0
 12  6  1  0
  5 13  2  0
 13 14  1  0
 14 15  2  0
 15  3  1  0
 15 16  1  0
 16 17  1  0
 17 18  2  0
 18 19  1  0
 19 20  2  0
 20 21  1  0
 20 22  1  0
 22 23  1  0
 23 24  1  0
 24 25  2  0
 25 26  1  0
 26 27  2  0
 27 28  1  0
 28 29  1  0
 29 30  2  0
 30 31  2  0
 28 32  2  0
 32 24  1  0
 22 33  2  0
 33 17  1  0
M  END
> <Name>
CHEMBL4218052

> <pChEMBL_Value>
5.32

$$$$
CHEMBL3425656
  SciTegic08122012322D

 45 49  0  0  0  0            999 V2000
    3.9068   -0.7607    0.0000 C   0  0
    2.6046   -1.5052    0.0000 O   0  0
    2.5973   -3.0060    0.0000 C   0  0
    3.8942   -3.7597    0.0000 C   0  0
    3.8899   -5.2597    0.0000 C   0  0
    5.1874   -6.0137    0.0000 N   0  0
    6.4899   -5.2696    0.0000 C   0  0
    7.7856   -6.0253    0.0000 C   0  0
    7.7789   -7.5253    0.0000 N   0  0
    9.0746   -8.2811    0.0000 C   0  0
    6.4766   -8.2695    0.0000 C   0  0
    5.1809   -7.5138    0.0000 C   0  0
    2.5887   -6.0060    0.0000 C   0  0
    1.2918   -5.2523    0.0000 C   0  0
    1.2961   -3.7523    0.0000 C   0  0
   -0.0031   -3.0008    0.0000 N   0  0
   -1.3039   -3.7494    0.0000 C   0  0
   -1.3092   -5.2494    0.0000 N   0  0
   -2.6108   -5.9949    0.0000 C   0  0
   -3.9072   -5.2404    0.0000 C   0  0
   -5.2089   -5.9859    0.0000 Cl  0  0
   -3.9020   -3.7404    0.0000 C   0  0
   -5.1977   -2.9829    0.0000 O   0  0
   -5.1903   -1.4821    0.0000 C   0  0
   -6.4841   -0.7230    0.0000 C   0  0
   -6.4738    0.7769    0.0000 C   0  0
   -5.1696    1.5179    0.0000 C   0  0
   -3.8758    0.7590    0.0000 C   0  0
   -2.5693    1.4977    0.0000 N   0  0
   -1.2759    0.7365    0.0000 C   0  0
   -1.2888   -0.7634    0.0000 O   0  0
    0.0306    1.4752    0.0000 C   0  0
    0.0436    2.9760    0.0000 C   0  0
    0.0565    4.4759    0.0000 N   0  0
    1.3240    0.7140    0.0000 C   0  0
    2.6305    1.4527    0.0000 C   0  0
    3.9243    0.6938    0.0000 C   0  0
    5.2285    1.4348    0.0000 C   0  0
    5.2389    2.9347    0.0000 C   0  0
    6.5423    3.6788    0.0000 S   0  0
    6.5506    5.1788    0.0000 C   0  0
    3.9451    3.6937    0.0000 C   0  0
    2.6409    2.9528    0.0000 C   0  0
   -3.8861   -0.7410    0.0000 C   0  0
   -2.6004   -2.9949    0.0000 N   0  0
  1  2  1  0
  2  3  1  0
  3  4  2  0
  4  5  1  0
  5  6  1  0
  6  7  1  0
  7  8  1  0
  8  9  1  0
  9 10  1  0
  9 11  1  0
 11 12  1  0
 12  6  1  0
  5 13  2  0
 13 14  1  0
 14 15  2  0
 15  3  1  0
 15 16  1  0
 16 17  1  0
 17 18  2  0
 18 19  1  0
 19 20  2  0
 20 21  1  0
 20 22  1  0
 22 23  1  0
 23 24  1  0
 24 25  2  0
 25 26  1  0
 26 27  2  0
 27 28  1  0
 28 29  1  0
 29 30  1  0
 30 31  2  0
 30 32  1  0
 32 33  1  0
 33 34  3  0
 32 35  2  0
 35 36  1  0
 36 37  2  0
 37 38  1  0
 38 39  2  0
 39 40  1  0
 40 41  1  0
 39 42  1  0
 42 43  2  0
 43 36  1  0
 28 44  2  0
 44 24  1  0
 22 45  2  0
 45 17  1  0
M  END
> <Name>
CHEMBL3425656

> <pChEMBL_Value>
5.32

$$$$
CHEMBL4216551
  SciTegic08122012322D

 39 42  0  0  0  0            999 V2000
    3.8983   -0.7459    0.0000 C   0  0
    2.6003   -1.4977    0.0000 O   0  0
    1.2990   -0.7500    0.0000 C   0  0
    1.2990    0.7500    0.0000 C   0  0
    0.0000    1.5000    0.0000 C   0  0
    0.0000    3.0008    0.0000 N   0  0
    1.2978    3.7529    0.0000 C   0  0
    1.2954    5.2529    0.0000 C   0  0
   -0.0048    6.0009    0.0000 N   0  0
   -0.0064    7.0009    0.0000 C   0  0
   -1.3026    5.2488    0.0000 C   0  0
   -1.3002    3.7488    0.0000 C   0  0
   -1.2990    0.7500    0.0000 C   0  0
   -1.2990   -0.7500    0.0000 C   0  0
    0.0000   -1.5000    0.0000 C   0  0
   -0.0031   -3.0008    0.0000 N   0  0
   -1.3039   -3.7494    0.0000 C   0  0
   -1.3092   -5.2494    0.0000 N   0  0
   -2.6108   -5.9949    0.0000 C   0  0
   -3.9072   -5.2404    0.0000 C   0  0
   -5.2089   -5.9859    0.0000 Cl  0  0
   -3.9020   -3.7404    0.0000 C   0  0
   -5.1977   -2.9829    0.0000 O   0  0
   -5.1903   -1.4821    0.0000 C   0  0
   -6.4841   -0.7230    0.0000 C   0  0
   -6.4738    0.7769    0.0000 C   0  0
   -5.1696    1.5179    0.0000 C   0  0
   -5.1561    3.0187    0.0000 N   0  0
   -3.8501    3.7583    0.0000 C   0  0
   -2.5576    2.9971    0.0000 O   0  0
   -3.8367    5.2590    0.0000 C   0  0
   -2.5307    5.9986    0.0000 C   0  0
   -2.5173    7.4994    0.0000 C   0  0
   -1.2113    8.2389    0.0000 N   0  0
   -1.1978    9.7388    0.0000 C   0  0
   -0.3496    7.7314    0.0000 C   0  0
   -3.8758    0.7590    0.0000 C   0  0
   -3.8861   -0.7410    0.0000 C   0  0
   -2.6004   -2.9949    0.0000 N   0  0
  1  2  1  0
  2  3  1  0
  3  4  2  0
  4  5  1  0
  5  6  1  0
  6  7  1  0
  7  8  1  0
  8  9  1  0
  9 10  1  0
  9 11  1  0
 11 12  1  0
 12  6  1  0
  5 13  2  0
 13 14  1  0
 14 15  2  0
 15  3  1  0
 15 16  1  0
 16 17  1  0
 17 18  2  0
 18 19  1  0
 19 20  2  0
 20 21  1  0
 20 22  1  0
 22 23  1  0
 23 24  1  0
 24 25  2  0
 25 26  1  0
 26 27  2  0
 27 28  1  0
 28 29  1  0
 29 30  2  0
 29 31  1  0
 31 32  2  0
 32 33  1  0
 33 34  1  0
 34 35  1  0
 34 36  1  0
 27 37  1  0
 37 38  2  0
 38 24  1  0
 22 39  2  0
 39 17  1  0
M  END
> <Name>
CHEMBL4216551

> <pChEMBL_Value>
5.30

$$$$
CHEMBL3425672
  SciTegic08122012322D

 38 42  0  0  0  0            999 V2000
    3.9068   -0.7607    0.0000 C   0  0
    2.6046   -1.5052    0.0000 O   0  0
    2.5973   -3.0060    0.0000 C   0  0
    3.8942   -3.7597    0.0000 C   0  0
    3.8899   -5.2597    0.0000 C   0  0
    5.1874   -6.0137    0.0000 N   0  0
    6.4899   -5.2696    0.0000 C   0  0
    7.7856   -6.0253    0.0000 C   0  0
    7.7789   -7.5253    0.0000 N   0  0
    9.0746   -8.2811    0.0000 C   0  0
    6.4766   -8.2695    0.0000 C   0  0
    5.1809   -7.5138    0.0000 C   0  0
    2.5887   -6.0060    0.0000 C   0  0
    1.2918   -5.2523    0.0000 C   0  0
    1.2961   -3.7523    0.0000 C   0  0
   -0.0031   -3.0008    0.0000 N   0  0
   -1.3039   -3.7494    0.0000 C   0  0
   -1.3092   -5.2494    0.0000 N   0  0
   -2.6108   -5.9949    0.0000 C   0  0
   -3.9072   -5.2404    0.0000 C   0  0
   -5.2089   -5.9859    0.0000 Cl  0  0
   -3.9020   -3.7404    0.0000 C   0  0
   -5.1977   -2.9829    0.0000 O   0  0
   -5.1903   -1.4821    0.0000 C   0  0
   -6.4841   -0.7230    0.0000 C   0  0
   -6.4738    0.7769    0.0000 C   0  0
   -5.1696    1.5179    0.0000 C   0  0
   -3.8758    0.7590    0.0000 C   0  0
   -2.5693    1.4977    0.0000 N   0  0
   -1.2759    0.7365    0.0000 C   0  0
   -1.2888   -0.7634    0.0000 O   0  0
    0.0306    1.4752    0.0000 C   0  0
    1.3240    0.7140    0.0000 C   0  0
    2.6305    1.4527    0.0000 C   0  0
    4.0509    1.3973    0.0000 C   0  0
    3.3099    2.7014    0.0000 C   0  0
   -3.8861   -0.7410    0.0000 C   0  0
   -2.6004   -2.9949    0.0000 N   0  0
  1  2  1  0
  2  3  1  0
  3  4  2  0
  4  5  1  0
  5  6  1  0
  6  7  1  0
  7  8  1  0
  8  9  1  0
  9 10  1  0
  9 11  1  0
 11 12  1  0
 12  6  1  0
  5 13  2  0
 13 14  1  0
 14 15  2  0
 15  3  1  0
 15 16  1  0
 16 17  1  0
 17 18  2  0
 18 19  1  0
 19 20  2  0
 20 21  1  0
 20 22  1  0
 22 23  1  0
 23 24  1  0
 24 25  2  0
 25 26  1  0
 26 27  2  0
 27 28  1  0
 28 29  1  0
 29 30  1  0
 30 31  2  0
 30 32  1  0
 32 33  2  0
 33 34  1  0
 34 35  1  0
 35 36  1  0
 36 34  1  0
 28 37  2  0
 37 24  1  0
 22 38  2  0
 38 17  1  0
M  END
> <Name>
CHEMBL3425672

> <pChEMBL_Value>
5.25

$$$$
CHEMBL4205869
  SciTegic08122012322D

 33 36  0  0  0  0            999 V2000
    3.9068   -0.7607    0.0000 C   0  0
    2.6046   -1.5052    0.0000 O   0  0
    2.5973   -3.0060    0.0000 C   0  0
    3.8942   -3.7597    0.0000 C   0  0
    3.8899   -5.2597    0.0000 C   0  0
    5.1874   -6.0137    0.0000 N   0  0
    6.4899   -5.2696    0.0000 C   0  0
    7.7856   -6.0253    0.0000 C   0  0
    7.7789   -7.5253    0.0000 N   0  0
    9.0746   -8.2811    0.0000 C   0  0
    6.4766   -8.2695    0.0000 C   0  0
    5.1809   -7.5138    0.0000 C   0  0
    2.5887   -6.0060    0.0000 C   0  0
    1.2918   -5.2523    0.0000 C   0  0
    1.2961   -3.7523    0.0000 C   0  0
   -0.0031   -3.0008    0.0000 N   0  0
   -1.3039   -3.7494    0.0000 C   0  0
   -1.3092   -5.2494    0.0000 N   0  0
   -2.6108   -5.9949    0.0000 C   0  0
   -3.9072   -5.2404    0.0000 C   0  0
   -5.2089   -5.9859    0.0000 Cl  0  0
   -3.9020   -3.7404    0.0000 C   0  0
   -5.1977   -2.9829    0.0000 O   0  0
   -5.1903   -1.4821    0.0000 C   0  0
   -6.4841   -0.7230    0.0000 C   0  0
   -6.4738    0.7769    0.0000 C   0  0
   -5.1696    1.5179    0.0000 C   0  0
   -3.8758    0.7590    0.0000 C   0  0
   -2.5693    1.4977    0.0000 N   0  3
   -1.2766    0.7369    0.0000 O   0  0
   -2.5563    2.9977    0.0000 O   0  5
   -3.8861   -0.7410    0.0000 C   0  0
   -2.6004   -2.9949    0.0000 N   0  0
  1  2  1  0
  2  3  1  0
  3  4  2  0
  4  5  1  0
  5  6  1  0
  6  7  1  0
  7  8  1  0
  8  9  1  0
  9 10  1  0
  9 11  1  0
 11 12  1  0
 12  6  1  0
  5 13  2  0
 13 14  1  0
 14 15  2  0
 15  3  1  0
 15 16  1  0
 16 17  1  0
 17 18  2  0
 18 19  1  0
 19 20  2  0
 20 21  1  0
 20 22  1  0
 22 23  1  0
 23 24  1  0
 24 25  2  0
 25 26  1  0
 26 27  2  0
 27 28  1  0
 28 29  1  0
 29 30  2  0
 29 31  1  0
 28 32  2  0
 32 24  1  0
 22 33  2  0
 33 17  1  0
M  CHG  2  29   1  31  -1
M  END
> <Name>
CHEMBL4205869

> <pChEMBL_Value>
5.24

$$$$
CHEMBL4202780
  SciTegic08122012322D

 39 42  0  0  0  0            999 V2000
    3.8983   -0.7459    0.0000 C   0  0
    2.6003   -1.4977    0.0000 O   0  0
    1.2990   -0.7500    0.0000 C   0  0
    1.2990    0.7500    0.0000 C   0  0
    0.0000    1.5000    0.0000 C   0  0
    0.0000    3.0008    0.0000 N   0  0
    1.2978    3.7529    0.0000 C   0  0
    1.2954    5.2529    0.0000 C   0  0
   -0.0048    6.0009    0.0000 N   0  0
   -0.0072    7.5009    0.0000 C   0  0
   -1.3026    5.2488    0.0000 C   0  0
   -1.3002    3.7488    0.0000 C   0  0
   -1.2990    0.7500    0.0000 C   0  0
   -1.2990   -0.7500    0.0000 C   0  0
    0.0000   -1.5000    0.0000 C   0  0
   -0.0031   -3.0008    0.0000 N   0  0
   -1.3039   -3.7494    0.0000 C   0  0
   -1.3092   -5.2494    0.0000 N   0  0
   -2.6108   -5.9949    0.0000 C   0  0
   -3.9072   -5.2404    0.0000 C   0  0
   -5.2089   -5.9859    0.0000 Cl  0  0
   -3.9020   -3.7404    0.0000 C   0  0
   -5.1977   -2.9829    0.0000 O   0  0
   -5.1903   -1.4821    0.0000 C   0  0
   -3.8861   -0.7410    0.0000 C   0  0
   -3.8758    0.7590    0.0000 C   0  0
   -5.1696    1.5179    0.0000 C   0  0
   -6.4738    0.7769    0.0000 C   0  0
   -6.4841   -0.7230    0.0000 C   0  0
   -7.7906   -1.4617    0.0000 N   0  0
   -9.0840   -0.7004    0.0000 C   0  0
   -9.0710    0.7995    0.0000 O   0  0
  -10.3905   -1.4391    0.0000 C   0  0
  -11.6839   -0.6779    0.0000 C   0  0
  -12.9904   -1.4165    0.0000 C   0  0
  -14.2838   -0.6553    0.0000 N   0  0
  -15.5895   -1.3935    0.0000 C   0  0
  -14.2708    0.8447    0.0000 C   0  0
   -2.6004   -2.9949    0.0000 N   0  0
  1  2  1  0
  2  3  1  0
  3  4  2  0
  4  5  1  0
  5  6  1  0
  6  7  1  0
  7  8  1  0
  8  9  1  0
  9 10  1  0
  9 11  1  0
 11 12  1  0
 12  6  1  0
  5 13  2  0
 13 14  1  0
 14 15  2  0
 15  3  1  0
 15 16  1  0
 16 17  1  0
 17 18  2  0
 18 19  1  0
 19 20  2  0
 20 21  1  0
 20 22  1  0
 22 23  1  0
 23 24  1  0
 24 25  2  0
 25 26  1  0
 26 27  2  0
 27 28  1  0
 28 29  2  0
 29 24  1  0
 29 30  1  0
 30 31  1  0
 31 32  2  0
 31 33  1  0
 33 34  2  0
 34 35  1  0
 35 36  1  0
 36 37  1  0
 36 38  1  0
 22 39  2  0
 39 17  1  0
M  END
> <Name>
CHEMBL4202780

> <pChEMBL_Value>
5.22

$$$$
CHEMBL4214620
  SciTegic08122012322D

 33 36  0  0  0  0            999 V2000
    3.9068   -0.7607    0.0000 C   0  0
    2.6046   -1.5052    0.0000 O   0  0
    2.5973   -3.0060    0.0000 C   0  0
    3.8942   -3.7597    0.0000 C   0  0
    3.8899   -5.2597    0.0000 C   0  0
    5.1874   -6.0137    0.0000 N   0  0
    6.4899   -5.2696    0.0000 C   0  0
    7.7856   -6.0253    0.0000 C   0  0
    7.7789   -7.5253    0.0000 N   0  0
    9.0746   -8.2811    0.0000 C   0  0
    6.4766   -8.2695    0.0000 C   0  0
    5.1809   -7.5138    0.0000 C   0  0
    2.5887   -6.0060    0.0000 C   0  0
    1.2918   -5.2523    0.0000 C   0  0
    1.2961   -3.7523    0.0000 C   0  0
   -0.0031   -3.0008    0.0000 N   0  0
   -1.3039   -3.7494    0.0000 C   0  0
   -1.3092   -5.2494    0.0000 N   0  0
   -2.6108   -5.9949    0.0000 C   0  0
   -3.9072   -5.2404    0.0000 C   0  0
   -5.2089   -5.9859    0.0000 Cl  0  0
   -3.9020   -3.7404    0.0000 C   0  0
   -5.1977   -2.9829    0.0000 O   0  0
   -5.1903   -1.4821    0.0000 C   0  0
   -6.4841   -0.7230    0.0000 C   0  0
   -6.4738    0.7769    0.0000 C   0  0
   -5.1696    1.5179    0.0000 C   0  0
   -3.8758    0.7590    0.0000 C   0  0
   -2.5693    1.4977    0.0000 N   0  0
   -1.2759    0.7365    0.0000 N   0  3
    0.0169   -0.0243    0.0000 N   0  5
   -3.8861   -0.7410    0.0000 C   0  0
   -2.6004   -2.9949    0.0000 N   0  0
  1  2  1  0
  2  3  1  0
  3  4  2  0
  4  5  1  0
  5  6  1  0
  6  7  1  0
  7  8  1  0
  8  9  1  0
  9 10  1  0
  9 11  1  0
 11 12  1  0
 12  6  1  0
  5 13  2  0
 13 14  1  0
 14 15  2  0
 15  3  1  0
 15 16  1  0
 16 17  1  0
 17 18  2  0
 18 19  1  0
 19 20  2  0
 20 21  1  0
 20 22  1  0
 22 23  1  0
 23 24  1  0
 24 25  2  0
 25 26  1  0
 26 27  2  0
 27 28  1  0
 28 29  1  0
 29 30  2  0
 30 31  2  0
 28 32  2  0
 32 24  1  0
 22 33  2  0
 33 17  1  0
M  CHG  2  30   1  31  -1
M  END
> <Name>
CHEMBL4214620

> <pChEMBL_Value>
5.22

$$$$
CHEMBL3425655
  SciTegic08122012322D

 44 48  0  0  0  0            999 V2000
    3.9068   -0.7607    0.0000 C   0  0
    2.6046   -1.5052    0.0000 O   0  0
    2.5973   -3.0060    0.0000 C   0  0
    3.8942   -3.7597    0.0000 C   0  0
    3.8899   -5.2597    0.0000 C   0  0
    5.1874   -6.0137    0.0000 N   0  0
    6.4899   -5.2696    0.0000 C   0  0
    7.7856   -6.0253    0.0000 C   0  0
    7.7789   -7.5253    0.0000 N   0  0
    9.0746   -8.2811    0.0000 C   0  0
    6.4766   -8.2695    0.0000 C   0  0
    5.1809   -7.5138    0.0000 C   0  0
    2.5887   -6.0060    0.0000 C   0  0
    1.2918   -5.2523    0.0000 C   0  0
    1.2961   -3.7523    0.0000 C   0  0
   -0.0031   -3.0008    0.0000 N   0  0
   -1.3039   -3.7494    0.0000 C   0  0
   -1.3092   -5.2494    0.0000 N   0  0
   -2.6108   -5.9949    0.0000 C   0  0
   -3.9072   -5.2404    0.0000 C   0  0
   -5.2089   -5.9859    0.0000 Cl  0  0
   -3.9020   -3.7404    0.0000 C   0  0
   -5.1977   -2.9829    0.0000 O   0  0
   -5.1903   -1.4821    0.0000 C   0  0
   -6.4841   -0.7230    0.0000 C   0  0
   -6.4738    0.7769    0.0000 C   0  0
   -5.1696    1.5179    0.0000 C   0  0
   -3.8758    0.7590    0.0000 C   0  0
   -2.5693    1.4977    0.0000 N   0  0
   -1.2759    0.7365    0.0000 C   0  0
   -1.2888   -0.7634    0.0000 O   0  0
    0.0306    1.4752    0.0000 C   0  0
    0.0436    2.9760    0.0000 C   0  0
    0.0565    4.4759    0.0000 N   0  0
    1.3240    0.7140    0.0000 C   0  0
    2.6305    1.4527    0.0000 C   0  0
    3.9243    0.6938    0.0000 C   0  0
    5.2285    1.4348    0.0000 C   0  0
    5.2389    2.9347    0.0000 C   0  0
    6.5432    3.6757    0.0000 F   0  0
    3.9451    3.6937    0.0000 C   0  0
    2.6409    2.9528    0.0000 C   0  0
   -3.8861   -0.7410    0.0000 C   0  0
   -2.6004   -2.9949    0.0000 N   0  0
  1  2  1  0
  2  3  1  0
  3  4  2  0
  4  5  1  0
  5  6  1  0
  6  7  1  0
  7  8  1  0
  8  9  1  0
  9 10  1  0
  9 11  1  0
 11 12  1  0
 12  6  1  0
  5 13  2  0
 13 14  1  0
 14 15  2  0
 15  3  1  0
 15 16  1  0
 16 17  1  0
 17 18  2  0
 18 19  1  0
 19 20  2  0
 20 21  1  0
 20 22  1  0
 22 23  1  0
 23 24  1  0
 24 25  2  0
 25 26  1  0
 26 27  2  0
 27 28  1  0
 28 29  1  0
 29 30  1  0
 30 31  2  0
 30 32  1  0
 32 33  1  0
 33 34  3  0
 32 35  2  0
 35 36  1  0
 36 37  2  0
 37 38  1  0
 38 39  2  0
 39 40  1  0
 39 41  1  0
 41 42  2  0
 42 36  1  0
 28 43  2  0
 43 24  1  0
 22 44  2  0
 44 17  1  0
M  END
> <Name>
CHEMBL3425655

> <pChEMBL_Value>
5.16

$$$$
CHEMBL4210237
  SciTegic08122012322D

 35 38  0  0  0  0            999 V2000
    6.4983   -0.7414    0.0000 C   0  0
    5.2003   -1.4932    0.0000 C   0  0
    3.8990   -0.7455    0.0000 C   0  0
    3.8964    0.7545    0.0000 O   0  0
    2.6003   -1.4977    0.0000 N   0  0
    1.2990   -0.7500    0.0000 C   0  0
    1.2990    0.7500    0.0000 C   0  0
    0.0000    1.5000    0.0000 C   0  0
   -1.2990    0.7500    0.0000 C   0  0
   -1.2990   -0.7500    0.0000 C   0  0
    0.0000   -1.5000    0.0000 C   0  0
   -0.0031   -3.0008    0.0000 O   0  0
   -1.3039   -3.7494    0.0000 C   0  0
   -2.6004   -2.9949    0.0000 N   0  0
   -3.9021   -3.7405    0.0000 C   0  0
   -5.2008   -2.9882    0.0000 N   0  0
   -6.5020   -3.7360    0.0000 C   0  0
   -6.5021   -5.2361    0.0000 C   0  0
   -7.8011   -5.9861    0.0000 C   0  0
   -9.1002   -5.2361    0.0000 C   0  0
  -10.3999   -5.9865    0.0000 N   0  0
  -10.4023   -7.4865    0.0000 C   0  0
  -11.7026   -8.2345    0.0000 C   0  0
  -13.0004   -7.4824    0.0000 N   0  0
  -14.3006   -8.2303    0.0000 C   0  0
  -12.9980   -5.9824    0.0000 C   0  0
  -11.6978   -5.2345    0.0000 C   0  0
   -9.1002   -3.7361    0.0000 C   0  0
   -7.8011   -2.9861    0.0000 C   0  0
   -7.8043   -1.4852    0.0000 O   0  0
   -9.1044   -0.7371    0.0000 C   0  0
   -3.9072   -5.2404    0.0000 N   0  0
   -2.6108   -5.9949    0.0000 C   0  0
   -1.3092   -5.2494    0.0000 C   0  0
   -0.0127   -6.0039    0.0000 Cl  0  0
  1  2  2  0
  2  3  1  0
  3  4  2  0
  3  5  1  0
  5  6  1  0
  6  7  2  0
  7  8  1  0
  8  9  2  0
  9 10  1  0
 10 11  2  0
 11  6  1  0
 11 12  1  0
 12 13  1  0
 13 14  2  0
 14 15  1  0
 15 16  1  0
 16 17  1  0
 17 18  2  0
 18 19  1  0
 19 20  2  0
 20 21  1  0
 21 22  1  0
 22 23  1  0
 23 24  1  0
 24 25  1  0
 24 26  1  0
 26 27  1  0
 27 21  1  0
 20 28  1  0
 28 29  2  0
 29 17  1  0
 29 30  1  0
 30 31  1  0
 15 32  2  0
 32 33  1  0
 33 34  2  0
 34 13  1  0
 34 35  1  0
M  END
> <Name>
CHEMBL4210237

> <pChEMBL_Value>
5.16

$$$$
CHEMBL3425664
  SciTegic08122012322D

 40 44  0  0  0  0            999 V2000
    3.9068   -0.7607    0.0000 C   0  0
    2.6046   -1.5052    0.0000 O   0  0
    2.5973   -3.0060    0.0000 C   0  0
    3.8942   -3.7597    0.0000 C   0  0
    3.8899   -5.2597    0.0000 C   0  0
    5.1874   -6.0137    0.0000 N   0  0
    6.4899   -5.2696    0.0000 C   0  0
    7.7856   -6.0253    0.0000 C   0  0
    7.7789   -7.5253    0.0000 N   0  0
    9.0746   -8.2811    0.0000 C   0  0
    6.4766   -8.2695    0.0000 C   0  0
    5.1809   -7.5138    0.0000 C   0  0
    2.5887   -6.0060    0.0000 C   0  0
    1.2918   -5.2523    0.0000 C   0  0
    1.2961   -3.7523    0.0000 C   0  0
   -0.0031   -3.0008    0.0000 N   0  0
   -1.3039   -3.7494    0.0000 C   0  0
   -1.3092   -5.2494    0.0000 N   0  0
   -2.6108   -5.9949    0.0000 C   0  0
   -3.9072   -5.2404    0.0000 C   0  0
   -5.2089   -5.9859    0.0000 Cl  0  0
   -3.9020   -3.7404    0.0000 C   0  0
   -5.1977   -2.9829    0.0000 O   0  0
   -5.1903   -1.4821    0.0000 C   0  0
   -6.4841   -0.7230    0.0000 C   0  0
   -6.4738    0.7769    0.0000 C   0  0
   -5.1696    1.5179    0.0000 C   0  0
   -3.8758    0.7590    0.0000 C   0  0
   -2.5693    1.4977    0.0000 N   0  0
   -1.2759    0.7365    0.0000 C   0  0
   -1.2888   -0.7634    0.0000 O   0  0
    0.0306    1.4752    0.0000 C   0  0
    0.0436    2.9760    0.0000 C   0  0
    0.0565    4.4759    0.0000 N   0  0
    1.3240    0.7140    0.0000 C   0  0
    2.6305    1.4527    0.0000 C   0  0
    4.0509    1.3973    0.0000 C   0  0
    3.3099    2.7014    0.0000 C   0  0
   -3.8861   -0.7410    0.0000 C   0  0
   -2.6004   -2.9949    0.0000 N   0  0
  1  2  1  0
  2  3  1  0
  3  4  2  0
  4  5  1  0
  5  6  1  0
  6  7  1  0
  7  8  1  0
  8  9  1  0
  9 10  1  0
  9 11  1  0
 11 12  1  0
 12  6  1  0
  5 13  2  0
 13 14  1  0
 14 15  2  0
 15  3  1  0
 15 16  1  0
 16 17  1  0
 17 18  2  0
 18 19  1  0
 19 20  2  0
 20 21  1  0
 20 22  1  0
 22 23  1  0
 23 24  1  0
 24 25  2  0
 25 26  1  0
 26 27  2  0
 27 28  1  0
 28 29  1  0
 29 30  1  0
 30 31  2  0
 30 32  1  0
 32 33  1  0
 33 34  3  0
 32 35  2  0
 35 36  1  0
 36 37  1  0
 37 38  1  0
 38 36  1  0
 28 39  2  0
 39 24  1  0
 22 40  2  0
 40 17  1  0
M  END
> <Name>
CHEMBL3425664

> <pChEMBL_Value>
5.14

$$$$
CHEMBL4205469
  SciTegic08122012322D

 31 34  0  0  0  0            999 V2000
    3.8983   -0.7459    0.0000 C   0  0
    2.6003   -1.4977    0.0000 O   0  0
    1.2990   -0.7500    0.0000 C   0  0
    1.2990    0.7500    0.0000 C   0  0
    0.0000    1.5000    0.0000 C   0  0
    0.0000    3.0008    0.0000 N   0  0
    1.2978    3.7529    0.0000 C   0  0
    1.2954    5.2529    0.0000 C   0  0
   -0.0048    6.0009    0.0000 N   0  0
   -0.0072    7.5009    0.0000 C   0  0
   -1.3026    5.2488    0.0000 C   0  0
   -1.3002    3.7488    0.0000 C   0  0
   -1.2990    0.7500    0.0000 C   0  0
   -1.2990   -0.7500    0.0000 C   0  0
    0.0000   -1.5000    0.0000 C   0  0
   -0.0031   -3.0008    0.0000 N   0  0
   -1.3039   -3.7494    0.0000 C   0  0
   -1.3092   -5.2494    0.0000 N   0  0
   -2.6108   -5.9949    0.0000 C   0  0
   -3.9072   -5.2404    0.0000 C   0  0
   -5.2089   -5.9859    0.0000 Cl  0  0
   -3.9020   -3.7404    0.0000 C   0  0
   -5.1977   -2.9829    0.0000 O   0  0
   -5.1903   -1.4821    0.0000 C   0  0
   -6.4841   -0.7230    0.0000 C   0  0
   -6.4738    0.7769    0.0000 C   0  0
   -5.1696    1.5179    0.0000 C   0  0
   -5.1592    3.0179    0.0000 N   0  0
   -3.8758    0.7590    0.0000 C   0  0
   -3.8861   -0.7410    0.0000 C   0  0
   -2.6004   -2.9949    0.0000 N   0  0
  1  2  1  0
  2  3  1  0
  3  4  2  0
  4  5  1  0
  5  6  1  0
  6  7  1  0
  7  8  1  0
  8  9  1  0
  9 10  1  0
  9 11  1  0
 11 12  1  0
 12  6  1  0
  5 13  2  0
 13 14  1  0
 14 15  2  0
 15  3  1  0
 15 16  1  0
 16 17  1  0
 17 18  2  0
 18 19  1  0
 19 20  2  0
 20 21  1  0
 20 22  1  0
 22 23  1  0
 23 24  1  0
 24 25  2  0
 25 26  1  0
 26 27  2  0
 27 28  1  0
 27 29  1  0
 29 30  2  0
 30 24  1  0
 22 31  2  0
 31 17  1  0
M  END
> <Name>
CHEMBL4205469

> <pChEMBL_Value>
5.13

$$$$
CHEMBL3237934
  SciTegic08122012322D

 42 46  0  0  0  0            999 V2000
    3.9068   -0.7607    0.0000 C   0  0
    2.6046   -1.5052    0.0000 O   0  0
    2.5973   -3.0060    0.0000 C   0  0
    3.8942   -3.7597    0.0000 C   0  0
    3.8899   -5.2597    0.0000 C   0  0
    5.1874   -6.0137    0.0000 N   0  0
    6.4899   -5.2696    0.0000 C   0  0
    7.7856   -6.0253    0.0000 C   0  0
    7.7789   -7.5253    0.0000 N   0  0
    9.0746   -8.2811    0.0000 C   0  0
    6.4766   -8.2695    0.0000 C   0  0
    5.1809   -7.5138    0.0000 C   0  0
    2.5887   -6.0060    0.0000 C   0  0
    1.2918   -5.2523    0.0000 C   0  0
    1.2961   -3.7523    0.0000 C   0  0
   -0.0031   -3.0008    0.0000 N   0  0
   -1.3039   -3.7494    0.0000 C   0  0
   -1.3092   -5.2494    0.0000 N   0  0
   -2.6108   -5.9949    0.0000 C   0  0
   -3.9072   -5.2404    0.0000 C   0  0
   -5.2089   -5.9859    0.0000 Cl  0  0
   -3.9020   -3.7404    0.0000 C   0  0
   -5.1977   -2.9829    0.0000 O   0  0
   -5.1903   -1.4821    0.0000 C   0  0
   -6.4841   -0.7230    0.0000 C   0  0
   -6.4738    0.7769    0.0000 C   0  0
   -5.1696    1.5179    0.0000 C   0  0
   -3.8758    0.7590    0.0000 C   0  0
   -2.5693    1.4977    0.0000 N   0  0
   -1.2759    0.7365    0.0000 C   0  0
   -1.2888   -0.7634    0.0000 O   0  0
    0.0306    1.4752    0.0000 C   0  0
    1.3240    0.7140    0.0000 C   0  0
    2.6305    1.4527    0.0000 N   0  0
    3.9243    0.6938    0.0000 C   0  0
    5.2285    1.4348    0.0000 C   0  0
    5.2389    2.9347    0.0000 N   0  0
    6.5432    3.6757    0.0000 C   0  0
    3.9451    3.6937    0.0000 C   0  0
    2.6409    2.9528    0.0000 C   0  0
   -3.8861   -0.7410    0.0000 C   0  0
   -2.6004   -2.9949    0.0000 N   0  0
  1  2  1  0
  2  3  1  0
  3  4  2  0
  4  5  1  0
  5  6  1  0
  6  7  1  0
  7  8  1  0
  8  9  1  0
  9 10  1  0
  9 11  1  0
 11 12  1  0
 12  6  1  0
  5 13  2  0
 13 14  1  0
 14 15  2  0
 15  3  1  0
 15 16  1  0
 16 17  1  0
 17 18  2  0
 18 19  1  0
 19 20  2  0
 20 21  1  0
 20 22  1  0
 22 23  1  0
 23 24  1  0
 24 25  2  0
 25 26  1  0
 26 27  2  0
 27 28  1  0
 28 29  1  0
 29 30  1  0
 30 31  2  0
 30 32  1  0
 32 33  1  0
 33 34  1  0
 34 35  1  0
 35 36  1  0
 36 37  1  0
 37 38  1  0
 37 39  1  0
 39 40  1  0
 40 34  1  0
 28 41  2  0
 41 24  1  0
 22 42  2  0
 42 17  1  0
M  END
> <Name>
CHEMBL3237934

> <pChEMBL_Value>
5.13

$$$$
CHEMBL4211322
  SciTegic08122012322D

 33 36  0  0  0  0            999 V2000
    3.8983   -0.7459    0.0000 C   0  0
    2.6003   -1.4977    0.0000 O   0  0
    1.2990   -0.7500    0.0000 C   0  0
    1.2990    0.7500    0.0000 C   0  0
    0.0000    1.5000    0.0000 C   0  0
    0.0000    3.0008    0.0000 N   0  0
    1.2978    3.7529    0.0000 C   0  0
    1.2954    5.2529    0.0000 C   0  0
   -0.0048    6.0009    0.0000 N   0  0
   -0.0072    7.5009    0.0000 C   0  0
   -1.3026    5.2488    0.0000 C   0  0
   -1.3002    3.7488    0.0000 C   0  0
   -1.2990    0.7500    0.0000 C   0  0
   -1.2990   -0.7500    0.0000 C   0  0
    0.0000   -1.5000    0.0000 C   0  0
   -0.0031   -3.0008    0.0000 N   0  0
   -1.3039   -3.7494    0.0000 C   0  0
   -1.3092   -5.2494    0.0000 N   0  0
   -2.6108   -5.9949    0.0000 C   0  0
   -3.9072   -5.2404    0.0000 C   0  0
   -5.2089   -5.9859    0.0000 Cl  0  0
   -3.9020   -3.7404    0.0000 C   0  0
   -5.1977   -2.9829    0.0000 O   0  0
   -5.1903   -1.4821    0.0000 C   0  0
   -3.8861   -0.7410    0.0000 C   0  0
   -3.8758    0.7590    0.0000 C   0  0
   -5.1696    1.5179    0.0000 C   0  0
   -6.4738    0.7769    0.0000 C   0  0
   -6.4841   -0.7230    0.0000 C   0  0
   -7.7906   -1.4617    0.0000 N   0  3
   -9.0833   -0.7009    0.0000 O   0  0
   -7.8036   -2.9617    0.0000 O   0  5
   -2.6004   -2.9949    0.0000 N   0  0
  1  2  1  0
  2  3  1  0
  3  4  2  0
  4  5  1  0
  5  6  1  0
  6  7  1  0
  7  8  1  0
  8  9  1  0
  9 10  1  0
  9 11  1  0
 11 12  1  0
 12  6  1  0
  5 13  2  0
 13 14  1  0
 14 15  2  0
 15  3  1  0
 15 16  1  0
 16 17  1  0
 17 18  2  0
 18 19  1  0
 19 20  2  0
 20 21  1  0
 20 22  1  0
 22 23  1  0
 23 24  1  0
 24 25  2  0
 25 26  1  0
 26 27  2  0
 27 28  1  0
 28 29  2  0
 29 24  1  0
 29 30  1  0
 30 31  2  0
 30 32  1  0
 22 33  2  0
 33 17  1  0
M  CHG  2  30   1  32  -1
M  END
> <Name>
CHEMBL4211322

> <pChEMBL_Value>
5.12

$$$$
CHEMBL3425661
  SciTegic08122012322D

 43 47  0  0  0  0            999 V2000
    3.9068   -0.7607    0.0000 C   0  0
    2.6046   -1.5052    0.0000 O   0  0
    2.5973   -3.0060    0.0000 C   0  0
    3.8942   -3.7597    0.0000 C   0  0
    3.8899   -5.2597    0.0000 C   0  0
    5.1874   -6.0137    0.0000 N   0  0
    6.4899   -5.2696    0.0000 C   0  0
    7.7856   -6.0253    0.0000 C   0  0
    7.7789   -7.5253    0.0000 N   0  0
    9.0746   -8.2811    0.0000 C   0  0
    6.4766   -8.2695    0.0000 C   0  0
    5.1809   -7.5138    0.0000 C   0  0
    2.5887   -6.0060    0.0000 C   0  0
    1.2918   -5.2523    0.0000 C   0  0
    1.2961   -3.7523    0.0000 C   0  0
   -0.0031   -3.0008    0.0000 N   0  0
   -1.3039   -3.7494    0.0000 C   0  0
   -1.3092   -5.2494    0.0000 N   0  0
   -2.6108   -5.9949    0.0000 C   0  0
   -3.9072   -5.2404    0.0000 C   0  0
   -5.2089   -5.9859    0.0000 Cl  0  0
   -3.9020   -3.7404    0.0000 C   0  0
   -5.1977   -2.9829    0.0000 O   0  0
   -5.1903   -1.4821    0.0000 C   0  0
   -6.4841   -0.7230    0.0000 C   0  0
   -6.4738    0.7769    0.0000 C   0  0
   -5.1696    1.5179    0.0000 C   0  0
   -3.8758    0.7590    0.0000 C   0  0
   -2.5693    1.4977    0.0000 N   0  0
   -1.2759    0.7365    0.0000 C   0  0
   -1.2888   -0.7634    0.0000 O   0  0
    0.0306    1.4752    0.0000 C   0  0
    0.0436    2.9760    0.0000 C   0  0
    0.0565    4.4759    0.0000 N   0  0
    1.3240    0.7140    0.0000 C   0  0
    2.6305    1.4527    0.0000 C   0  0
    3.9243    0.6938    0.0000 C   0  0
    5.2285    1.4348    0.0000 C   0  0
    5.2389    2.9347    0.0000 N   0  0
    3.9451    3.6937    0.0000 C   0  0
    2.6409    2.9528    0.0000 C   0  0
   -3.8861   -0.7410    0.0000 C   0  0
   -2.6004   -2.9949    0.0000 N   0  0
  1  2  1  0
  2  3  1  0
  3  4  2  0
  4  5  1  0
  5  6  1  0
  6  7  1  0
  7  8  1  0
  8  9  1  0
  9 10  1  0
  9 11  1  0
 11 12  1  0
 12  6  1  0
  5 13  2  0
 13 14  1  0
 14 15  2  0
 15  3  1  0
 15 16  1  0
 16 17  1  0
 17 18  2  0
 18 19  1  0
 19 20  2  0
 20 21  1  0
 20 22  1  0
 22 23  1  0
 23 24  1  0
 24 25  2  0
 25 26  1  0
 26 27  2  0
 27 28  1  0
 28 29  1  0
 29 30  1  0
 30 31  2  0
 30 32  1  0
 32 33  1  0
 33 34  3  0
 32 35  2  0
 35 36  1  0
 36 37  2  0
 37 38  1  0
 38 39  2  0
 39 40  1  0
 40 41  2  0
 41 36  1  0
 28 42  2  0
 42 24  1  0
 22 43  2  0
 43 17  1  0
M  END
> <Name>
CHEMBL3425661

> <pChEMBL_Value>
5.06

$$$$
CHEMBL4204354
  SciTegic08122012322D

 33 36  0  0  0  0            999 V2000
    3.8983   -0.7459    0.0000 C   0  0
    2.6003   -1.4977    0.0000 O   0  0
    1.2990   -0.7500    0.0000 C   0  0
    1.2990    0.7500    0.0000 C   0  0
    0.0000    1.5000    0.0000 C   0  0
    0.0000    3.0008    0.0000 N   0  0
    1.2978    3.7529    0.0000 C   0  0
    1.2954    5.2529    0.0000 C   0  0
   -0.0048    6.0009    0.0000 N   0  0
   -0.0072    7.5009    0.0000 C   0  0
   -1.3026    5.2488    0.0000 C   0  0
   -1.3002    3.7488    0.0000 C   0  0
   -1.2990    0.7500    0.0000 C   0  0
   -1.2990   -0.7500    0.0000 C   0  0
    0.0000   -1.5000    0.0000 C   0  0
   -0.0031   -3.0008    0.0000 N   0  0
   -1.3039   -3.7494    0.0000 C   0  0
   -1.3092   -5.2494    0.0000 N   0  0
   -2.6108   -5.9949    0.0000 C   0  0
   -3.9072   -5.2404    0.0000 C   0  0
   -5.2089   -5.9859    0.0000 Cl  0  0
   -3.9020   -3.7404    0.0000 C   0  0
   -5.1977   -2.9829    0.0000 O   0  0
   -5.1903   -1.4821    0.0000 C   0  0
   -6.4841   -0.7230    0.0000 C   0  0
   -6.4738    0.7769    0.0000 C   0  0
   -5.1696    1.5179    0.0000 C   0  0
   -5.1561    3.0187    0.0000 N   0  0
   -3.8501    3.7583    0.0000 C   0  0
   -2.5449    4.4974    0.0000 S   0  0
   -3.8758    0.7590    0.0000 C   0  0
   -3.8861   -0.7410    0.0000 C   0  0
   -2.6004   -2.9949    0.0000 N   0  0
  1  2  1  0
  2  3  1  0
  3  4  2  0
  4  5  1  0
  5  6  1  0
  6  7  1  0
  7  8  1  0
  8  9  1  0
  9 10  1  0
  9 11  1  0
 11 12  1  0
 12  6  1  0
  5 13  2  0
 13 14  1  0
 14 15  2  0
 15  3  1  0
 15 16  1  0
 16 17  1  0
 17 18  2  0
 18 19  1  0
 19 20  2  0
 20 21  1  0
 20 22  1  0
 22 23  1  0
 23 24  1  0
 24 25  2  0
 25 26  1  0
 26 27  2  0
 27 28  1  0
 28 29  2  0
 29 30  2  0
 27 31  1  0
 31 32  2  0
 32 24  1  0
 22 33  2  0
 33 17  1  0
M  END
> <Name>
CHEMBL4204354

> <pChEMBL_Value>
5.04

$$$$
CHEMBL4208167
  SciTegic08122012322D

 33 36  0  0  0  0            999 V2000
    3.8983   -0.7459    0.0000 C   0  0
    2.6003   -1.4977    0.0000 O   0  0
    1.2990   -0.7500    0.0000 C   0  0
    1.2990    0.7500    0.0000 C   0  0
    0.0000    1.5000    0.0000 C   0  0
    0.0000    3.0008    0.0000 N   0  0
    1.2978    3.7529    0.0000 C   0  0
    1.2954    5.2529    0.0000 C   0  0
   -0.0048    6.0009    0.0000 N   0  0
   -0.0072    7.5009    0.0000 C   0  0
   -1.3026    5.2488    0.0000 C   0  0
   -1.3002    3.7488    0.0000 C   0  0
   -1.2990    0.7500    0.0000 C   0  0
   -1.2990   -0.7500    0.0000 C   0  0
    0.0000   -1.5000    0.0000 C   0  0
   -0.0031   -3.0008    0.0000 N   0  0
   -1.3039   -3.7494    0.0000 C   0  0
   -1.3092   -5.2494    0.0000 N   0  0
   -2.6108   -5.9949    0.0000 C   0  0
   -3.9072   -5.2404    0.0000 C   0  0
   -5.2089   -5.9859    0.0000 Cl  0  0
   -3.9020   -3.7404    0.0000 C   0  0
   -5.1977   -2.9829    0.0000 O   0  0
   -5.1903   -1.4821    0.0000 C   0  0
   -6.4841   -0.7230    0.0000 C   0  0
   -6.4738    0.7769    0.0000 C   0  0
   -5.1696    1.5179    0.0000 C   0  0
   -5.1561    3.0187    0.0000 N   0  3
   -3.8509    3.7579    0.0000 O   0  0
   -6.4486    3.7799    0.0000 O   0  5
   -3.8758    0.7590    0.0000 C   0  0
   -3.8861   -0.7410    0.0000 C   0  0
   -2.6004   -2.9949    0.0000 N   0  0
  1  2  1  0
  2  3  1  0
  3  4  2  0
  4  5  1  0
  5  6  1  0
  6  7  1  0
  7  8  1  0
  8  9  1  0
  9 10  1  0
  9 11  1  0
 11 12  1  0
 12  6  1  0
  5 13  2  0
 13 14  1  0
 14 15  2  0
 15  3  1  0
 15 16  1  0
 16 17  1  0
 17 18  2  0
 18 19  1  0
 19 20  2  0
 20 21  1  0
 20 22  1  0
 22 23  1  0
 23 24  1  0
 24 25  2  0
 25 26  1  0
 26 27  2  0
 27 28  1  0
 28 29  2  0
 28 30  1  0
 27 31  1  0
 31 32  2  0
 32 24  1  0
 22 33  2  0
 33 17  1  0
M  CHG  2  28   1  30  -1
M  END
> <Name>
CHEMBL4208167

> <pChEMBL_Value>
5.03

$$$$
CHEMBL4216025
  SciTegic08122012322D

 33 36  0  0  0  0            999 V2000
    3.8983   -0.7459    0.0000 C   0  0
    2.6003   -1.4977    0.0000 O   0  0
    1.2990   -0.7500    0.0000 C   0  0
    1.2990    0.7500    0.0000 C   0  0
    0.0000    1.5000    0.0000 C   0  0
    0.0000    3.0008    0.0000 N   0  0
    1.2978    3.7529    0.0000 C   0  0
    1.2954    5.2529    0.0000 C   0  0
   -0.0048    6.0009    0.0000 N   0  0
   -0.0072    7.5009    0.0000 C   0  0
   -1.3026    5.2488    0.0000 C   0  0
   -1.3002    3.7488    0.0000 C   0  0
   -1.2990    0.7500    0.0000 C   0  0
   -1.2990   -0.7500    0.0000 C   0  0
    0.0000   -1.5000    0.0000 C   0  0
   -0.0031   -3.0008    0.0000 N   0  0
   -1.3039   -3.7494    0.0000 C   0  0
   -1.3092   -5.2494    0.0000 N   0  0
   -2.6108   -5.9949    0.0000 C   0  0
   -3.9072   -5.2404    0.0000 C   0  0
   -5.2089   -5.9859    0.0000 Cl  0  0
   -3.9020   -3.7404    0.0000 C   0  0
   -5.1977   -2.9829    0.0000 O   0  0
   -5.1903   -1.4821    0.0000 C   0  0
   -6.4841   -0.7230    0.0000 C   0  0
   -6.4738    0.7769    0.0000 C   0  0
   -5.1696    1.5179    0.0000 C   0  0
   -5.1561    3.0187    0.0000 N   0  0
   -3.8501    3.7583    0.0000 N   0  3
   -2.5449    4.4974    0.0000 N   0  5
   -3.8758    0.7590    0.0000 C   0  0
   -3.8861   -0.7410    0.0000 C   0  0
   -2.6004   -2.9949    0.0000 N   0  0
  1  2  1  0
  2  3  1  0
  3  4  2  0
  4  5  1  0
  5  6  1  0
  6  7  1  0
  7  8  1  0
  8  9  1  0
  9 10  1  0
  9 11  1  0
 11 12  1  0
 12  6  1  0
  5 13  2  0
 13 14  1  0
 14 15  2  0
 15  3  1  0
 15 16  1  0
 16 17  1  0
 17 18  2  0
 18 19  1  0
 19 20  2  0
 20 21  1  0
 20 22  1  0
 22 23  1  0
 23 24  1  0
 24 25  2  0
 25 26  1  0
 26 27  2  0
 27 28  1  0
 28 29  2  0
 29 30  2  0
 27 31  1  0
 31 32  2  0
 32 24  1  0
 22 33  2  0
 33 17  1  0
M  CHG  2  29   1  30  -1
M  END
> <Name>
CHEMBL4216025

> <pChEMBL_Value>
5.01

$$$$
CHEMBL3237932
  SciTegic08122012322D

 41 45  0  0  0  0            999 V2000
    3.9068   -0.7607    0.0000 C   0  0
    2.6046   -1.5052    0.0000 O   0  0
    2.5973   -3.0060    0.0000 C   0  0
    3.8942   -3.7597    0.0000 C   0  0
    3.8899   -5.2597    0.0000 C   0  0
    5.1874   -6.0137    0.0000 N   0  0
    6.4899   -5.2696    0.0000 C   0  0
    7.7856   -6.0253    0.0000 C   0  0
    7.7789   -7.5253    0.0000 N   0  0
    9.0746   -8.2811    0.0000 C   0  0
    6.4766   -8.2695    0.0000 C   0  0
    5.1809   -7.5138    0.0000 C   0  0
    2.5887   -6.0060    0.0000 C   0  0
    1.2918   -5.2523    0.0000 C   0  0
    1.2961   -3.7523    0.0000 C   0  0
   -0.0031   -3.0008    0.0000 N   0  0
   -1.3039   -3.7494    0.0000 C   0  0
   -1.3092   -5.2494    0.0000 N   0  0
   -2.6108   -5.9949    0.0000 C   0  0
   -3.9072   -5.2404    0.0000 C   0  0
   -5.2089   -5.9859    0.0000 Cl  0  0
   -3.9020   -3.7404    0.0000 C   0  0
   -5.1977   -2.9829    0.0000 O   0  0
   -5.1903   -1.4821    0.0000 C   0  0
   -6.4841   -0.7230    0.0000 C   0  0
   -6.4738    0.7769    0.0000 C   0  0
   -5.1696    1.5179    0.0000 C   0  0
   -3.8758    0.7590    0.0000 C   0  0
   -2.5693    1.4977    0.0000 N   0  0
   -1.2759    0.7365    0.0000 C   0  0
   -1.2888   -0.7634    0.0000 O   0  0
    0.0306    1.4752    0.0000 C   0  0
    1.3240    0.7140    0.0000 C   0  0
    2.6305    1.4527    0.0000 N   0  0
    3.9243    0.6938    0.0000 C   0  0
    5.2285    1.4348    0.0000 C   0  0
    5.2389    2.9347    0.0000 C   0  0
    3.9451    3.6937    0.0000 C   0  0
    2.6409    2.9528    0.0000 C   0  0
   -3.8861   -0.7410    0.0000 C   0  0
   -2.6004   -2.9949    0.0000 N   0  0
  1  2  1  0
  2  3  1  0
  3  4  2  0
  4  5  1  0
  5  6  1  0
  6  7  1  0
  7  8  1  0
  8  9  1  0
  9 10  1  0
  9 11  1  0
 11 12  1  0
 12  6  1  0
  5 13  2  0
 13 14  1  0
 14 15  2  0
 15  3  1  0
 15 16  1  0
 16 17  1  0
 17 18  2  0
 18 19  1  0
 19 20  2  0
 20 21  1  0
 20 22  1  0
 22 23  1  0
 23 24  1  0
 24 25  2  0
 25 26  1  0
 26 27  2  0
 27 28  1  0
 28 29  1  0
 29 30  1  0
 30 31  2  0
 30 32  1  0
 32 33  1  0
 33 34  1  0
 34 35  1  0
 35 36  1  0
 36 37  1  0
 37 38  1  0
 38 39  1  0
 39 34  1  0
 28 40  2  0
 40 24  1  0
 22 41  2  0
 41 17  1  0
M  END
> <Name>
CHEMBL3237932

> <pChEMBL_Value>
5.00

$$$$
CHEMBL2029438
  SciTegic08122012322D

 45 50  0  0  0  0            999 V2000
    6.4757   -8.2656    0.0000 C   0  0
    5.1799   -7.5101    0.0000 C   0  0
    5.1854   -6.0093    0.0000 C   0  0
    6.4874   -5.2644    0.0000 O   0  0
    3.8888   -5.2533    0.0000 N   0  0
    3.8943   -3.7525    0.0000 C   0  0
    5.1945   -3.0045    0.0000 C   0  0
    5.1969   -1.5045    0.0000 C   0  0
    3.8991   -0.7525    0.0000 C   0  0
    2.5987   -1.5004    0.0000 C   0  0
    1.2990   -0.7500    0.0000 N   0  0
    0.0000   -1.5000    0.0000 C   0  0
    0.0000   -3.0000    0.0000 O   0  0
   -1.2990   -0.7500    0.0000 N   0  0
   -2.6003   -1.4977    0.0000 C   0  0
   -3.8990   -0.7455    0.0000 C   0  0
   -5.2007   -1.4909    0.0000 C   0  0
   -6.4972   -0.7364    0.0000 C   0  0
   -6.4920    0.7636    0.0000 C   0  0
   -5.1903    1.5091    0.0000 C   0  0
   -3.8939    0.7546    0.0000 C   0  0
   -1.2990    0.7500    0.0000 C   0  0
    0.0000    1.5000    0.0000 C   0  0
    0.0000    3.0000    0.0000 C   0  0
    1.2990    3.7500    0.0000 N   0  0
    2.5981    3.0000    0.0000 C   0  0
    3.8994    3.7477    0.0000 N   0  0
    5.1981    2.9955    0.0000 C   0  0
    5.1929    1.4954    0.0000 C   0  0
    6.4894    0.7409    0.0000 C   0  0
    7.7910    1.4865    0.0000 C   0  0
    9.0881    0.7316    0.0000 N   0  0
    9.0854   -0.7685    0.0000 C   0  0
   10.3830   -1.5209    0.0000 C   0  0
   11.6835   -0.7733    0.0000 N   0  0
   12.9811   -1.5257    0.0000 C   0  0
   11.6863    0.7267    0.0000 C   0  0
   10.3886    1.4791    0.0000 C   0  0
    7.7962    2.9864    0.0000 C   0  0
    6.4997    3.7409    0.0000 C   0  0
    6.5081    5.2417    0.0000 O   0  0
    7.8108    5.9853    0.0000 C   0  0
    2.5981    1.5000    0.0000 N   0  0
    1.2990    0.7500    0.0000 C   0  0
    2.5965   -3.0004    0.0000 C   0  0
  1  2  2  0
  2  3  1  0
  3  4  2  0
  3  5  1  0
  5  6  1  0
  6  7  2  0
  7  8  1  0
  8  9  2  0
  9 10  1  0
 10 11  1  0
 11 12  1  0
 12 13  2  0
 12 14  1  0
 14 15  1  0
 15 16  1  0
 16 17  2  0
 17 18  1  0
 18 19  2  0
 19 20  1  0
 20 21  2  0
 21 16  1  0
 14 22  1  0
 22 23  1  0
 23 24  2  0
 24 25  1  0
 25 26  2  0
 26 27  1  0
 27 28  1  0
 28 29  2  0
 29 30  1  0
 30 31  2  0
 31 32  1  0
 32 33  1  0
 33 34  1  0
 34 35  1  0
 35 36  1  0
 35 37  1  0
 37 38  1  0
 38 32  1  0
 31 39  1  0
 39 40  2  0
 40 28  1  0
 40 41  1  0
 41 42  1  0
 26 43  1  0
 43 44  2  0
 44 23  1  0
 44 11  1  0
 10 45  2  0
 45  6  1  0
M  END
> <Name>
CHEMBL2029438

> <pChEMBL_Value>
9.54

$$$$
CHEMBL4127317
  SciTegic08122012322D

 42 46  0  0  0  0            999 V2000
    6.4757   -8.2656    0.0000 C   0  0
    5.1799   -7.5101    0.0000 C   0  0
    5.1854   -6.0093    0.0000 C   0  0
    6.4874   -5.2644    0.0000 O   0  0
    3.8888   -5.2533    0.0000 N   0  0
    3.8943   -3.7525    0.0000 C   0  0
    5.1945   -3.0045    0.0000 C   0  0
    5.1969   -1.5045    0.0000 C   0  0
    3.8991   -0.7525    0.0000 C   0  0
    2.5987   -1.5004    0.0000 C   0  0
    1.2990   -0.7500    0.0000 N   0  0
    0.0000   -1.5000    0.0000 C   0  0
    0.0000   -3.0000    0.0000 O   0  0
   -1.2990   -0.7500    0.0000 N   0  0
   -2.6003   -1.4977    0.0000 C   0  0
   -3.8983   -0.7459    0.0000 C   0  0
   -2.6030   -2.9977    0.0000 C   0  0
   -1.2990    0.7500    0.0000 C   0  0
   -2.5981    1.5000    0.0000 O   0  0
    0.0000    1.5000    0.0000 C   0  0
    0.0000    3.0000    0.0000 C   0  0
    1.2990    3.7500    0.0000 N   0  0
    2.5981    3.0000    0.0000 C   0  0
    3.8994    3.7477    0.0000 N   0  0
    5.1981    2.9955    0.0000 C   0  0
    5.1929    1.4954    0.0000 C   0  0
    6.4894    0.7409    0.0000 C   0  0
    7.7910    1.4865    0.0000 C   0  0
    9.0881    0.7316    0.0000 N   0  0
    9.0854   -0.7685    0.0000 C   0  0
   10.3830   -1.5209    0.0000 C   0  0
   11.6835   -0.7733    0.0000 N   0  0
   12.9811   -1.5257    0.0000 C   0  0
   11.6863    0.7267    0.0000 C   0  0
   10.3886    1.4791    0.0000 C   0  0
    7.7962    2.9864    0.0000 C   0  0
    6.4997    3.7409    0.0000 C   0  0
    6.5081    5.2417    0.0000 O   0  0
    7.8108    5.9853    0.0000 C   0  0
    2.5981    1.5000    0.0000 N   0  0
    1.2990    0.7500    0.0000 C   0  0
    2.5965   -3.0004    0.0000 C   0  0
  1  2  2  0
  2  3  1  0
  3  4  2  0
  3  5  1  0
  5  6  1  0
  6  7  2  0
  7  8  1  0
  8  9  2  0
  9 10  1  0
 10 11  1  0
 11 12  1  0
 12 13  2  0
 12 14  1  0
 14 15  1  0
 15 16  1  0
 15 17  1  0
 14 18  1  0
 18 19  2  0
 18 20  1  0
 20 21  2  0
 21 22  1  0
 22 23  2  0
 23 24  1  0
 24 25  1  0
 25 26  2  0
 26 27  1  0
 27 28  2  0
 28 29  1  0
 29 30  1  0
 30 31  1  0
 31 32  1  0
 32 33  1  0
 32 34  1  0
 34 35  1  0
 35 29  1  0
 28 36  1  0
 36 37  2  0
 37 25  1  0
 37 38  1  0
 38 39  1  0
 23 40  1  0
 40 41  2  0
 41 20  1  0
 41 11  1  0
 10 42  2  0
 42  6  1  0
M  END
> <Name>
CHEMBL4127317

> <pChEMBL_Value>
9.52

$$$$
CHEMBL2029436
  SciTegic08122012322D

 44 49  0  0  0  0            999 V2000
    6.4757   -8.2656    0.0000 C   0  0
    5.1799   -7.5101    0.0000 C   0  0
    5.1854   -6.0093    0.0000 C   0  0
    6.4874   -5.2644    0.0000 O   0  0
    3.8888   -5.2533    0.0000 N   0  0
    3.8943   -3.7525    0.0000 C   0  0
    5.1945   -3.0045    0.0000 C   0  0
    5.1969   -1.5045    0.0000 C   0  0
    3.8991   -0.7525    0.0000 C   0  0
    2.5987   -1.5004    0.0000 C   0  0
    1.2990   -0.7500    0.0000 N   0  0
    0.0000   -1.5000    0.0000 C   0  0
    0.0000   -3.0000    0.0000 O   0  0
   -1.2990   -0.7500    0.0000 N   0  0
   -2.5987   -1.5004    0.0000 C   0  0
   -2.6012   -3.0004    0.0000 C   0  0
   -3.9014   -3.7484    0.0000 C   0  0
   -5.1993   -2.9963    0.0000 C   0  0
   -5.1969   -1.4963    0.0000 C   0  0
   -3.8967   -0.7484    0.0000 C   0  0
   -1.2990    0.7500    0.0000 C   0  0
    0.0000    1.5000    0.0000 C   0  0
    0.0000    3.0000    0.0000 C   0  0
    1.2990    3.7500    0.0000 N   0  0
    2.5981    3.0000    0.0000 C   0  0
    3.8994    3.7477    0.0000 N   0  0
    5.1981    2.9955    0.0000 C   0  0
    5.1929    1.4954    0.0000 C   0  0
    6.4894    0.7409    0.0000 C   0  0
    7.7910    1.4865    0.0000 C   0  0
    9.0881    0.7316    0.0000 N   0  0
    9.0854   -0.7685    0.0000 C   0  0
   10.3830   -1.5209    0.0000 C   0  0
   11.6835   -0.7733    0.0000 N   0  0
   12.9811   -1.5257    0.0000 C   0  0
   11.6863    0.7267    0.0000 C   0  0
   10.3886    1.4791    0.0000 C   0  0
    7.7962    2.9864    0.0000 C   0  0
    6.4997    3.7409    0.0000 C   0  0
    6.5081    5.2417    0.0000 O   0  0
    7.8108    5.9853    0.0000 C   0  0
    2.5981    1.5000    0.0000 N   0  0
    1.2990    0.7500    0.0000 C   0  0
    2.5965   -3.0004    0.0000 C   0  0
  1  2  2  0
  2  3  1  0
  3  4  2  0
  3  5  1  0
  5  6  1  0
  6  7  2  0
  7  8  1  0
  8  9  2  0
  9 10  1  0
 10 11  1  0
 11 12  1  0
 12 13  2  0
 12 14  1  0
 14 15  1  0
 15 16  2  0
 16 17  1  0
 17 18  2  0
 18 19  1  0
 19 20  2  0
 20 15  1  0
 14 21  1  0
 21 22  1  0
 22 23  2  0
 23 24  1  0
 24 25  2  0
 25 26  1  0
 26 27  1  0
 27 28  2  0
 28 29  1  0
 29 30  2  0
 30 31  1  0
 31 32  1  0
 32 33  1  0
 33 34  1  0
 34 35  1  0
 34 36  1  0
 36 37  1  0
 37 31  1  0
 30 38  1  0
 38 39  2  0
 39 27  1  0
 39 40  1  0
 40 41  1  0
 25 42  1  0
 42 43  2  0
 43 22  1  0
 43 11  1  0
 10 44  2  0
 44  6  1  0
M  END
> <Name>
CHEMBL2029436

> <pChEMBL_Value>
9.52

$$$$
CHEMBL4290812
  SciTegic08122012322D

 38 42  0  0  0  0            999 V2000
   -1.4420  -11.9701    0.0000 C   0  0
   -2.8819  -11.5497    0.0000 C   0  0
   -4.3226  -11.1290    0.0000 C   0  0
   -4.6795   -9.6712    0.0000 C   0  0
   -3.5958   -8.6342    0.0000 O   0  0
   -6.1202   -9.2506    0.0000 N   0  0
   -6.4771   -7.7928    0.0000 C   0  0
   -5.3916   -6.7576    0.0000 C   0  0
   -5.7452   -5.2998    0.0000 C   0  0
   -4.6570   -4.2663    0.0000 N   0  0
   -3.2175   -4.6910    0.0000 C   0  0
   -2.8628   -6.1485    0.0000 N   0  0
   -1.4233   -6.5700    0.0000 C   0  0
   -0.3384   -5.5341    0.0000 C   0  0
   -0.6928   -4.0817    0.0000 C   0  0
    0.3114   -2.9665    0.0000 C   0  0
    1.8032   -3.1233    0.0000 C   0  0
    2.4133   -1.7530    0.0000 N   0  0
    3.8805   -1.4410    0.0000 C   0  0
    1.2990   -0.7500    0.0000 C   0  0
    1.2990    0.7500    0.0000 C   0  0
    0.0000    1.5000    0.0000 C   0  0
   -1.2990    0.7500    0.0000 C   0  0
   -1.2990   -0.7500    0.0000 C   0  0
    0.0000   -1.5000    0.0000 C   0  0
   -2.1327   -3.6551    0.0000 N   0  0
   -7.1846   -4.8774    0.0000 C   0  0
   -7.5416   -3.4196    0.0000 O   0  0
   -8.9814   -2.9992    0.0000 C   0  0
   -8.2701   -5.9126    0.0000 C   0  0
   -7.9164   -7.3703    0.0000 C   0  0
   -9.0024   -8.4060    0.0000 N   0  0
  -10.4425   -7.9859    0.0000 C   0  0
  -11.5263   -9.0228    0.0000 C   0  0
  -11.1703  -10.4799    0.0000 N   0  0
  -12.2542  -11.5168    0.0000 C   0  0
   -9.7303  -10.9001    0.0000 C   0  0
   -8.6465   -9.8632    0.0000 C   0  0
  1  2  2  0
  2  3  2  0
  3  4  1  0
  4  5  2  0
  4  6  1  0
  6  7  1  0
  7  8  2  0
  8  9  1  0
  9 10  1  0
 10 11  1  0
 11 12  2  0
 12 13  1  0
 13 14  2  0
 14 15  1  0
 15 16  1  0
 16 17  2  0
 17 18  1  0
 18 19  1  0
 18 20  1  0
 20 21  2  0
 21 22  1  0
 22 23  2  0
 23 24  1  0
 24 25  2  0
 25 16  1  0
 25 20  1  0
 15 26  2  0
 26 11  1  0
  9 27  2  0
 27 28  1  0
 28 29  1  0
 27 30  1  0
 30 31  2  0
 31  7  1  0
 31 32  1  0
 32 33  1  0
 33 34  1  0
 34 35  1  0
 35 36  1  0
 35 37  1  0
 37 38  1  0
 38 32  1  0
M  END
> <Name>
CHEMBL4290812

> <pChEMBL_Value>
9.52

$$$$
CHEMBL2029434
  SciTegic08122012322D

 41 45  0  0  0  0            999 V2000
    6.4757   -8.2656    0.0000 C   0  0
    5.1799   -7.5101    0.0000 C   0  0
    5.1854   -6.0093    0.0000 C   0  0
    6.4874   -5.2644    0.0000 O   0  0
    3.8888   -5.2533    0.0000 N   0  0
    3.8943   -3.7525    0.0000 C   0  0
    5.1945   -3.0045    0.0000 C   0  0
    5.1969   -1.5045    0.0000 C   0  0
    3.8991   -0.7525    0.0000 C   0  0
    2.5987   -1.5004    0.0000 C   0  0
    1.2990   -0.7500    0.0000 N   0  0
    0.0000   -1.5000    0.0000 C   0  0
    0.0000   -3.0000    0.0000 O   0  0
   -1.2990   -0.7500    0.0000 N   0  0
   -2.6003   -1.4977    0.0000 C   0  0
   -3.8983   -0.7459    0.0000 C   0  0
   -2.6030   -2.9977    0.0000 C   0  0
   -1.2990    0.7500    0.0000 C   0  0
    0.0000    1.5000    0.0000 C   0  0
    0.0000    3.0000    0.0000 C   0  0
    1.2990    3.7500    0.0000 N   0  0
    2.5981    3.0000    0.0000 C   0  0
    3.8994    3.7477    0.0000 N   0  0
    5.1981    2.9955    0.0000 C   0  0
    5.1929    1.4954    0.0000 C   0  0
    6.4894    0.7409    0.0000 C   0  0
    7.7910    1.4865    0.0000 C   0  0
    9.0881    0.7316    0.0000 N   0  0
    9.0854   -0.7685    0.0000 C   0  0
   10.3830   -1.5209    0.0000 C   0  0
   11.6835   -0.7733    0.0000 N   0  0
   12.9811   -1.5257    0.0000 C   0  0
   11.6863    0.7267    0.0000 C   0  0
   10.3886    1.4791    0.0000 C   0  0
    7.7962    2.9864    0.0000 C   0  0
    6.4997    3.7409    0.0000 C   0  0
    6.5081    5.2417    0.0000 O   0  0
    7.8108    5.9853    0.0000 C   0  0
    2.5981    1.5000    0.0000 N   0  0
    1.2990    0.7500    0.0000 C   0  0
    2.5965   -3.0004    0.0000 C   0  0
  1  2  2  0
  2  3  1  0
  3  4  2  0
  3  5  1  0
  5  6  1  0
  6  7  2  0
  7  8  1  0
  8  9  2  0
  9 10  1  0
 10 11  1  0
 11 12  1  0
 12 13  2  0
 12 14  1  0
 14 15  1  0
 15 16  1  0
 15 17  1  0
 14 18  1  0
 18 19  1  0
 19 20  2  0
 20 21  1  0
 21 22  2  0
 22 23  1  0
 23 24  1  0
 24 25  2  0
 25 26  1  0
 26 27  2  0
 27 28  1  0
 28 29  1  0
 29 30  1  0
 30 31  1  0
 31 32  1  0
 31 33  1  0
 33 34  1  0
 34 28  1  0
 27 35  1  0
 35 36  2  0
 36 24  1  0
 36 37  1  0
 37 38  1  0
 22 39  1  0
 39 40  2  0
 40 19  1  0
 40 11  1  0
 10 41  2  0
 41  6  1  0
M  END
> <Name>
CHEMBL2029434

> <pChEMBL_Value>
9.42

$$$$
CHEMBL4282543
  SciTegic08122012322D

 41 45  0  0  0  0            999 V2000
   -3.1264    6.1249    0.0000 C   0  0
   -2.7807    4.6652    0.0000 C   0  0
   -2.4348    3.2048    0.0000 C   0  0
   -3.5259    2.1743    0.0000 C   0  0
   -4.9630    2.6043    0.0000 O   0  0
   -3.1800    0.7139    0.0000 N   0  0
   -4.2711   -0.3166    0.0000 C   0  0
   -3.9214   -1.7752    0.0000 C   0  0
   -5.0098   -2.8075    0.0000 C   0  0
   -4.6570   -4.2663    0.0000 N   0  0
   -3.2175   -4.6910    0.0000 C   0  0
   -2.8628   -6.1485    0.0000 N   0  0
   -1.4233   -6.5700    0.0000 C   0  0
   -0.3384   -5.5341    0.0000 C   0  0
   -0.6928   -4.0817    0.0000 C   0  0
    0.3114   -2.9665    0.0000 C   0  0
    1.8032   -3.1233    0.0000 C   0  0
    2.4133   -1.7530    0.0000 N   0  0
    3.8805   -1.4410    0.0000 C   0  0
    1.2990   -0.7500    0.0000 C   0  0
    1.2990    0.7500    0.0000 C   0  0
    0.0000    1.5000    0.0000 C   0  0
   -1.2990    0.7500    0.0000 C   0  0
   -1.2990   -0.7500    0.0000 C   0  0
    0.0000   -1.5000    0.0000 C   0  0
   -2.1327   -3.6551    0.0000 N   0  0
   -6.4479   -2.3809    0.0000 C   0  0
   -7.5391   -3.4113    0.0000 O   0  0
   -8.9766   -2.9827    0.0000 C   0  0
   -6.7976   -0.9222    0.0000 C   0  0
   -5.7092    0.1100    0.0000 C   0  0
   -6.0620    1.5687    0.0000 O   0  0
   -7.5015    1.9934    0.0000 C   0  0
   -7.8544    3.4522    0.0000 C   0  0
   -9.2939    3.8769    0.0000 N   0  0
   -9.6487    5.3343    0.0000 C   0  0
  -11.0882    5.7559    0.0000 C   0  0
  -12.1731    4.7200    0.0000 N   0  0
  -13.6126    5.1415    0.0000 C   0  0
  -11.8183    3.2625    0.0000 C   0  0
  -10.3788    2.8410    0.0000 C   0  0
  1  2  2  0
  2  3  2  0
  3  4  1  0
  4  5  2  0
  4  6  1  0
  6  7  1  0
  7  8  2  0
  8  9  1  0
  9 10  1  0
 10 11  1  0
 11 12  2  0
 12 13  1  0
 13 14  2  0
 14 15  1  0
 15 16  1  0
 16 17  2  0
 17 18  1  0
 18 19  1  0
 18 20  1  0
 20 21  2  0
 21 22  1  0
 22 23  2  0
 23 24  1  0
 24 25  2  0
 25 16  1  0
 25 20  1  0
 15 26  2  0
 26 11  1  0
  9 27  2  0
 27 28  1  0
 28 29  1  0
 27 30  1  0
 30 31  2  0
 31  7  1  0
 31 32  1  0
 32 33  1  0
 33 34  1  0
 34 35  1  0
 35 36  1  0
 36 37  1  0
 37 38  1  0
 38 39  1  0
 38 40  1  0
 40 41  1  0
 41 35  1  0
M  END
> <Name>
CHEMBL4282543

> <pChEMBL_Value>
9.40

$$$$
CHEMBL2029429
  SciTegic08122012322D

 39 43  0  0  0  0            999 V2000
    6.4757   -8.2656    0.0000 C   0  0
    5.1799   -7.5101    0.0000 C   0  0
    5.1854   -6.0093    0.0000 C   0  0
    6.4874   -5.2644    0.0000 O   0  0
    3.8888   -5.2533    0.0000 N   0  0
    3.8943   -3.7525    0.0000 C   0  0
    5.1945   -3.0045    0.0000 C   0  0
    5.1969   -1.5045    0.0000 C   0  0
    3.8991   -0.7525    0.0000 C   0  0
    2.5987   -1.5004    0.0000 C   0  0
    1.2990   -0.7500    0.0000 N   0  0
    0.0000   -1.5000    0.0000 C   0  0
    0.0000   -3.0000    0.0000 O   0  0
   -1.2990   -0.7500    0.0000 N   0  0
   -2.5981   -1.5000    0.0000 C   0  0
   -1.2990    0.7500    0.0000 C   0  0
    0.0000    1.5000    0.0000 C   0  0
    0.0000    3.0000    0.0000 C   0  0
    1.2990    3.7500    0.0000 N   0  0
    2.5981    3.0000    0.0000 C   0  0
    3.8994    3.7477    0.0000 N   0  0
    3.9034    5.2486    0.0000 C   0  0
    5.2029    5.9978    0.0000 C   0  0
    5.2039    7.4978    0.0000 C   0  0
    3.9053    8.2487    0.0000 C   0  0
    3.9063    9.7494    0.0000 N   0  0
    5.2047   10.5007    0.0000 C   0  0
    5.2033   12.0007    0.0000 C   0  0
    3.9035   12.7495    0.0000 N   0  0
    3.9021   14.2495    0.0000 C   0  0
    2.6052   11.9983    0.0000 C   0  0
    2.6066   10.4983    0.0000 C   0  0
    2.6058    7.4995    0.0000 C   0  0
    1.3050    8.2481    0.0000 O   0  0
    0.0065    7.4971    0.0000 C   0  0
    2.6048    5.9995    0.0000 C   0  0
    2.5981    1.5000    0.0000 N   0  0
    1.2990    0.7500    0.0000 C   0  0
    2.5965   -3.0004    0.0000 C   0  0
  1  2  2  0
  2  3  1  0
  3  4  2  0
  3  5  1  0
  5  6  1  0
  6  7  2  0
  7  8  1  0
  8  9  2  0
  9 10  1  0
 10 11  1  0
 11 12  1  0
 12 13  2  0
 12 14  1  0
 14 15  1  0
 14 16  1  0
 16 17  1  0
 17 18  2  0
 18 19  1  0
 19 20  2  0
 20 21  1  0
 21 22  1  0
 22 23  2  0
 23 24  1  0
 24 25  2  0
 25 26  1  0
 26 27  1  0
 27 28  1  0
 28 29  1  0
 29 30  1  0
 29 31  1  0
 31 32  1  0
 32 26  1  0
 25 33  1  0
 33 34  1  0
 34 35  1  0
 33 36  2  0
 36 22  1  0
 20 37  1  0
 37 38  2  0
 38 17  1  0
 38 11  1  0
 10 39  2  0
 39  6  1  0
M  END
> <Name>
CHEMBL2029429

> <pChEMBL_Value>
9.39

$$$$
CHEMBL2029428
  SciTegic08122012322D

 37 41  0  0  0  0            999 V2000
    6.4757   -8.2656    0.0000 C   0  0
    5.1799   -7.5101    0.0000 C   0  0
    5.1854   -6.0093    0.0000 C   0  0
    6.4874   -5.2644    0.0000 O   0  0
    3.8888   -5.2533    0.0000 N   0  0
    3.8943   -3.7525    0.0000 C   0  0
    5.1945   -3.0045    0.0000 C   0  0
    5.1969   -1.5045    0.0000 C   0  0
    3.8991   -0.7525    0.0000 C   0  0
    2.5987   -1.5004    0.0000 C   0  0
    1.2990   -0.7500    0.0000 N   0  0
    0.0000   -1.5000    0.0000 C   0  0
    0.0000   -3.0000    0.0000 O   0  0
   -1.2990   -0.7500    0.0000 N   0  0
   -2.5981   -1.5000    0.0000 C   0  0
   -1.2990    0.7500    0.0000 C   0  0
    0.0000    1.5000    0.0000 C   0  0
    0.0000    3.0000    0.0000 C   0  0
    1.2990    3.7500    0.0000 N   0  0
    2.5981    3.0000    0.0000 C   0  0
    3.8994    3.7477    0.0000 N   0  0
    5.1981    2.9955    0.0000 C   0  0
    6.4997    3.7409    0.0000 C   0  0
    7.7962    2.9864    0.0000 C   0  0
    7.7910    1.4864    0.0000 C   0  0
    9.0881    0.7316    0.0000 N   0  0
   10.3910    1.4750    0.0000 C   0  0
   11.6862    0.7184    0.0000 C   0  0
   11.6787   -0.7816    0.0000 N   0  0
   12.9739   -1.5381    0.0000 C   0  0
   10.3759   -1.5250    0.0000 C   0  0
    9.0806   -0.7685    0.0000 C   0  0
    6.4894    0.7409    0.0000 C   0  0
    5.1929    1.4954    0.0000 C   0  0
    2.5981    1.5000    0.0000 N   0  0
    1.2990    0.7500    0.0000 C   0  0
    2.5965   -3.0004    0.0000 C   0  0
  1  2  2  0
  2  3  1  0
  3  4  2  0
  3  5  1  0
  5  6  1  0
  6  7  2  0
  7  8  1  0
  8  9  2  0
  9 10  1  0
 10 11  1  0
 11 12  1  0
 12 13  2  0
 12 14  1  0
 14 15  1  0
 14 16  1  0
 16 17  1  0
 17 18  2  0
 18 19  1  0
 19 20  2  0
 20 21  1  0
 21 22  1  0
 22 23  2  0
 23 24  1  0
 24 25  2  0
 25 26  1  0
 26 27  1  0
 27 28  1  0
 28 29  1  0
 29 30  1  0
 29 31  1  0
 31 32  1  0
 32 26  1  0
 25 33  1  0
 33 34  2  0
 34 22  1  0
 20 35  1  0
 35 36  2  0
 36 17  1  0
 36 11  1  0
 10 37  2  0
 37  6  1  0
M  END
> <Name>
CHEMBL2029428

> <pChEMBL_Value>
9.37

$$$$
CHEMBL4279227
  SciTegic08122012322D

 37 40  0  0  0  0            999 V2000
   -1.4420  -11.9701    0.0000 C   0  0
   -2.8819  -11.5497    0.0000 C   0  0
   -4.3226  -11.1290    0.0000 C   0  0
   -4.6795   -9.6712    0.0000 C   0  0
   -3.5958   -8.6342    0.0000 O   0  0
   -6.1202   -9.2506    0.0000 N   0  0
   -6.4771   -7.7928    0.0000 C   0  0
   -5.3916   -6.7576    0.0000 C   0  0
   -5.7452   -5.2998    0.0000 C   0  0
   -4.6570   -4.2663    0.0000 N   0  0
   -3.2175   -4.6910    0.0000 C   0  0
   -2.8628   -6.1485    0.0000 N   0  0
   -1.4233   -6.5700    0.0000 C   0  0
   -0.3384   -5.5341    0.0000 C   0  0
   -0.6928   -4.0817    0.0000 C   0  0
    0.3114   -2.9665    0.0000 C   0  0
    1.8032   -3.1233    0.0000 C   0  0
    2.4133   -1.7530    0.0000 N   0  0
    1.2990   -0.7500    0.0000 C   0  0
    1.2990    0.7500    0.0000 C   0  0
    0.0000    1.5000    0.0000 C   0  0
   -1.2990    0.7500    0.0000 C   0  0
   -1.2990   -0.7500    0.0000 C   0  0
    0.0000   -1.5000    0.0000 C   0  0
   -2.1327   -3.6551    0.0000 N   0  0
   -7.1846   -4.8774    0.0000 C   0  0
   -7.5416   -3.4196    0.0000 O   0  0
   -8.9814   -2.9992    0.0000 C   0  0
   -8.2701   -5.9126    0.0000 C   0  0
   -7.9164   -7.3703    0.0000 C   0  0
   -9.0046   -8.4038    0.0000 N   0  0
   -8.6534   -9.8621    0.0000 C   0  0
  -10.4441   -7.9790    0.0000 C   0  0
  -11.5323   -9.0126    0.0000 C   0  0
  -12.9718   -8.5878    0.0000 N   0  0
  -14.0594   -9.6207    0.0000 C   0  0
  -13.3230   -7.1295    0.0000 C   0  0
  1  2  2  0
  2  3  2  0
  3  4  1  0
  4  5  2  0
  4  6  1  0
  6  7  1  0
  7  8  2  0
  8  9  1  0
  9 10  1  0
 10 11  1  0
 11 12  2  0
 12 13  1  0
 13 14  2  0
 14 15  1  0
 15 16  1  0
 16 17  2  0
 17 18  1  0
 18 19  1  0
 19 20  2  0
 20 21  1  0
 21 22  2  0
 22 23  1  0
 23 24  2  0
 24 16  1  0
 24 19  1  0
 15 25  2  0
 25 11  1  0
  9 26  2  0
 26 27  1  0
 27 28  1  0
 26 29  1  0
 29 30  2  0
 30  7  1  0
 30 31  1  0
 31 32  1  0
 31 33  1  0
 33 34  1  0
 34 35  1  0
 35 36  1  0
 35 37  1  0
M  END
> <Name>
CHEMBL4279227

> <pChEMBL_Value>
9.30

$$$$
CHEMBL2029435
  SciTegic08122012322D

 41 46  0  0  0  0            999 V2000
    6.4757   -8.2656    0.0000 C   0  0
    5.1799   -7.5101    0.0000 C   0  0
    5.1854   -6.0093    0.0000 C   0  0
    6.4874   -5.2644    0.0000 O   0  0
    3.8888   -5.2533    0.0000 N   0  0
    3.8943   -3.7525    0.0000 C   0  0
    5.1945   -3.0045    0.0000 C   0  0
    5.1969   -1.5045    0.0000 C   0  0
    3.8991   -0.7525    0.0000 C   0  0
    2.5987   -1.5004    0.0000 C   0  0
    1.2990   -0.7500    0.0000 N   0  0
    0.0000   -1.5000    0.0000 C   0  0
    0.0000   -3.0000    0.0000 O   0  0
   -1.2990   -0.7500    0.0000 N   0  0
   -2.5987   -1.5004    0.0000 C   0  0
   -3.2716   -2.7527    0.0000 C   0  0
   -4.0195   -1.4524    0.0000 C   0  0
   -1.2990    0.7500    0.0000 C   0  0
    0.0000    1.5000    0.0000 C   0  0
    0.0000    3.0000    0.0000 C   0  0
    1.2990    3.7500    0.0000 N   0  0
    2.5981    3.0000    0.0000 C   0  0
    3.8994    3.7477    0.0000 N   0  0
    5.1981    2.9955    0.0000 C   0  0
    5.1929    1.4954    0.0000 C   0  0
    6.4894    0.7409    0.0000 C   0  0
    7.7910    1.4865    0.0000 C   0  0
    9.0881    0.7316    0.0000 N   0  0
    9.0854   -0.7685    0.0000 C   0  0
   10.3830   -1.5209    0.0000 C   0  0
   11.6835   -0.7733    0.0000 N   0  0
   12.9811   -1.5257    0.0000 C   0  0
   11.6863    0.7267    0.0000 C   0  0
   10.3886    1.4791    0.0000 C   0  0
    7.7962    2.9864    0.0000 C   0  0
    6.4997    3.7409    0.0000 C   0  0
    6.5081    5.2417    0.0000 O   0  0
    7.8108    5.9853    0.0000 C   0  0
    2.5981    1.5000    0.0000 N   0  0
    1.2990    0.7500    0.0000 C   0  0
    2.5965   -3.0004    0.0000 C   0  0
  1  2  2  0
  2  3  1  0
  3  4  2  0
  3  5  1  0
  5  6  1  0
  6  7  2  0
  7  8  1  0
  8  9  2  0
  9 10  1  0
 10 11  1  0
 11 12  1  0
 12 13  2  0
 12 14  1  0
 14 15  1  0
 15 16  1  0
 16 17  1  0
 17 15  1  0
 14 18  1  0
 18 19  1  0
 19 20  2  0
 20 21  1  0
 21 22  2  0
 22 23  1  0
 23 24  1  0
 24 25  2  0
 25 26  1  0
 26 27  2  0
 27 28  1  0
 28 29  1  0
 29 30  1  0
 30 31  1  0
 31 32  1  0
 31 33  1  0
 33 34  1  0
 34 28  1  0
 27 35  1  0
 35 36  2  0
 36 24  1  0
 36 37  1  0
 37 38  1  0
 22 39  1  0
 39 40  2  0
 40 19  1  0
 40 11  1  0
 10 41  2  0
 41  6  1  0
M  END
> <Name>
CHEMBL2029435

> <pChEMBL_Value>
9.24

$$$$
CHEMBL4282954
  SciTegic08122012322D

 37 41  0  0  0  0            999 V2000
   -1.4420  -11.9701    0.0000 C   0  0
   -2.8819  -11.5497    0.0000 C   0  0
   -4.3226  -11.1290    0.0000 C   0  0
   -4.6795   -9.6712    0.0000 C   0  0
   -3.5958   -8.6342    0.0000 O   0  0
   -6.1202   -9.2506    0.0000 N   0  0
   -6.4771   -7.7928    0.0000 C   0  0
   -5.3916   -6.7576    0.0000 C   0  0
   -5.7452   -5.2998    0.0000 C   0  0
   -4.6570   -4.2663    0.0000 N   0  0
   -3.2175   -4.6910    0.0000 C   0  0
   -2.8628   -6.1485    0.0000 N   0  0
   -1.4233   -6.5700    0.0000 C   0  0
   -0.3384   -5.5341    0.0000 C   0  0
   -0.6928   -4.0817    0.0000 C   0  0
    0.3114   -2.9665    0.0000 C   0  0
    1.8032   -3.1233    0.0000 C   0  0
    2.4133   -1.7530    0.0000 N   0  0
    3.8805   -1.4410    0.0000 C   0  0
    1.2990   -0.7500    0.0000 C   0  0
    1.2990    0.7500    0.0000 C   0  0
    0.0000    1.5000    0.0000 C   0  0
   -1.2990    0.7500    0.0000 C   0  0
   -1.2990   -0.7500    0.0000 C   0  0
    0.0000   -1.5000    0.0000 C   0  0
   -2.1327   -3.6551    0.0000 N   0  0
   -7.1846   -4.8774    0.0000 C   0  0
   -7.5416   -3.4196    0.0000 O   0  0
   -8.9814   -2.9992    0.0000 C   0  0
   -8.2701   -5.9126    0.0000 C   0  0
   -7.9164   -7.3703    0.0000 C   0  0
   -9.0024   -8.4060    0.0000 N   0  0
  -10.4425   -7.9859    0.0000 C   0  0
  -11.5263   -9.0228    0.0000 C   0  0
  -11.1703  -10.4799    0.0000 O   0  0
   -9.7303  -10.9001    0.0000 C   0  0
   -8.6465   -9.8632    0.0000 C   0  0
  1  2  2  0
  2  3  2  0
  3  4  1  0
  4  5  2  0
  4  6  1  0
  6  7  1  0
  7  8  2  0
  8  9  1  0
  9 10  1  0
 10 11  1  0
 11 12  2  0
 12 13  1  0
 13 14  2  0
 14 15  1  0
 15 16  1  0
 16 17  2  0
 17 18  1  0
 18 19  1  0
 18 20  1  0
 20 21  2  0
 21 22  1  0
 22 23  2  0
 23 24  1  0
 24 25  2  0
 25 16  1  0
 25 20  1  0
 15 26  2  0
 26 11  1  0
  9 27  2  0
 27 28  1  0
 28 29  1  0
 27 30  1  0
 30 31  2  0
 31  7  1  0
 31 32  1  0
 32 33  1  0
 33 34  1  0
 34 35  1  0
 35 36  1  0
 36 37  1  0
 37 32  1  0
M  END
> <Name>
CHEMBL4282954

> <pChEMBL_Value>
9.22

$$$$
CHEMBL4105621
  SciTegic08122012322D

 40 44  0  0  0  0            999 V2000
    6.4757   -8.2656    0.0000 C   0  0
    5.1799   -7.5101    0.0000 C   0  0
    5.1854   -6.0093    0.0000 C   0  0
    6.4874   -5.2644    0.0000 O   0  0
    3.8888   -5.2533    0.0000 N   0  0
    3.8943   -3.7525    0.0000 C   0  0
    5.1945   -3.0045    0.0000 C   0  0
    5.1969   -1.5045    0.0000 C   0  0
    6.4971   -0.7566    0.0000 Cl  0  0
    3.8991   -0.7525    0.0000 C   0  0
    2.5987   -1.5004    0.0000 C   0  0
    1.2990   -0.7500    0.0000 N   0  0
    0.0000   -1.5000    0.0000 C   0  0
    0.0000   -3.0000    0.0000 O   0  0
   -1.2990   -0.7500    0.0000 C   0  0
   -1.2990    0.7500    0.0000 C   0  0
   -2.5981    1.5000    0.0000 C   0  0
    0.0000    1.5000    0.0000 C   0  0
    0.0000    3.0000    0.0000 C   0  0
    1.2990    3.7500    0.0000 N   0  0
    2.5981    3.0000    0.0000 C   0  0
    3.8994    3.7477    0.0000 N   0  0
    5.1981    2.9955    0.0000 C   0  0
    5.1929    1.4954    0.0000 C   0  0
    6.4894    0.7409    0.0000 C   0  0
    7.7910    1.4865    0.0000 C   0  0
    9.0881    0.7316    0.0000 N   0  0
    9.0854   -0.7685    0.0000 C   0  0
   10.3830   -1.5209    0.0000 C   0  0
   11.6835   -0.7733    0.0000 N   0  0
   12.9811   -1.5257    0.0000 C   0  0
   11.6863    0.7267    0.0000 C   0  0
   10.3886    1.4791    0.0000 C   0  0
    7.7962    2.9864    0.0000 C   0  0
    6.4997    3.7409    0.0000 C   0  0
    6.5081    5.2417    0.0000 O   0  0
    7.8108    5.9853    0.0000 C   0  0
    2.5981    1.5000    0.0000 N   0  0
    1.2990    0.7500    0.0000 C   0  0
    2.5965   -3.0004    0.0000 C   0  0
  1  2  2  0
  2  3  1  0
  3  4  2  0
  3  5  1  0
  5  6  1  0
  6  7  2  0
  7  8  1  0
  8  9  1  0
  8 10  2  0
 10 11  1  0
 11 12  1  0
 12 13  1  0
 13 14  2  0
 13 15  1  0
 15 16  2  0
 16 17  1  0
 16 18  1  0
 18 19  2  0
 19 20  1  0
 20 21  2  0
 21 22  1  0
 22 23  1  0
 23 24  2  0
 24 25  1  0
 25 26  2  0
 26 27  1  0
 27 28  1  0
 28 29  1  0
 29 30  1  0
 30 31  1  0
 30 32  1  0
 32 33  1  0
 33 27  1  0
 26 34  1  0
 34 35  2  0
 35 23  1  0
 35 36  1  0
 36 37  1  0
 21 38  1  0
 38 39  2  0
 39 18  1  0
 39 12  1  0
 11 40  2  0
 40  6  1  0
M  END
> <Name>
CHEMBL4105621

> <pChEMBL_Value>
9.22

$$$$
CHEMBL4287401
  SciTegic08122012322D

 40 44  0  0  0  0            999 V2000
   -3.1264    6.1249    0.0000 C   0  0
   -2.7807    4.6652    0.0000 C   0  0
   -2.4348    3.2048    0.0000 C   0  0
   -3.5259    2.1743    0.0000 C   0  0
   -4.9630    2.6043    0.0000 O   0  0
   -3.1800    0.7139    0.0000 N   0  0
   -4.2711   -0.3166    0.0000 C   0  0
   -3.9214   -1.7752    0.0000 C   0  0
   -5.0098   -2.8075    0.0000 C   0  0
   -4.6570   -4.2663    0.0000 N   0  0
   -3.2175   -4.6910    0.0000 C   0  0
   -2.8628   -6.1485    0.0000 N   0  0
   -1.4233   -6.5700    0.0000 C   0  0
   -0.3384   -5.5341    0.0000 C   0  0
   -0.6928   -4.0817    0.0000 C   0  0
    0.3114   -2.9665    0.0000 C   0  0
    1.8032   -3.1233    0.0000 C   0  0
    2.4133   -1.7530    0.0000 N   0  0
    3.8805   -1.4410    0.0000 C   0  0
    1.2990   -0.7500    0.0000 C   0  0
    1.2990    0.7500    0.0000 C   0  0
    0.0000    1.5000    0.0000 C   0  0
   -1.2990    0.7500    0.0000 C   0  0
   -1.2990   -0.7500    0.0000 C   0  0
    0.0000   -1.5000    0.0000 C   0  0
   -2.1327   -3.6551    0.0000 N   0  0
   -6.4479   -2.3809    0.0000 C   0  0
   -7.5391   -3.4113    0.0000 O   0  0
   -8.9766   -2.9827    0.0000 C   0  0
   -6.7976   -0.9222    0.0000 C   0  0
   -5.7092    0.1100    0.0000 C   0  0
   -6.0620    1.5687    0.0000 O   0  0
   -7.5015    1.9934    0.0000 C   0  0
   -7.8544    3.4522    0.0000 C   0  0
   -9.2939    3.8769    0.0000 N   0  0
   -9.6487    5.3343    0.0000 C   0  0
  -11.0882    5.7559    0.0000 C   0  0
  -12.1731    4.7200    0.0000 O   0  0
  -11.8183    3.2625    0.0000 C   0  0
  -10.3788    2.8410    0.0000 C   0  0
  1  2  2  0
  2  3  2  0
  3  4  1  0
  4  5  2  0
  4  6  1  0
  6  7  1  0
  7  8  2  0
  8  9  1  0
  9 10  1  0
 10 11  1  0
 11 12  2  0
 12 13  1  0
 13 14  2  0
 14 15  1  0
 15 16  1  0
 16 17  2  0
 17 18  1  0
 18 19  1  0
 18 20  1  0
 20 21  2  0
 21 22  1  0
 22 23  2  0
 23 24  1  0
 24 25  2  0
 25 16  1  0
 25 20  1  0
 15 26  2  0
 26 11  1  0
  9 27  2  0
 27 28  1  0
 28 29  1  0
 27 30  1  0
 30 31  2  0
 31  7  1  0
 31 32  1  0
 32 33  1  0
 33 34  1  0
 34 35  1  0
 35 36  1  0
 36 37  1  0
 37 38  1  0
 38 39  1  0
 39 40  1  0
 40 35  1  0
M  END
> <Name>
CHEMBL4287401

> <pChEMBL_Value>
9.15

$$$$
CHEMBL4282688
  SciTegic08122012322D

 40 43  0  0  0  0            999 V2000
   -1.4420  -11.9701    0.0000 C   0  0
   -2.8819  -11.5497    0.0000 C   0  0
   -4.3226  -11.1290    0.0000 C   0  0
   -4.6795   -9.6712    0.0000 C   0  0
   -3.5958   -8.6342    0.0000 O   0  0
   -6.1202   -9.2506    0.0000 N   0  0
   -6.4771   -7.7928    0.0000 C   0  0
   -5.3916   -6.7576    0.0000 C   0  0
   -5.7452   -5.2998    0.0000 C   0  0
   -4.6570   -4.2663    0.0000 N   0  0
   -3.2175   -4.6910    0.0000 C   0  0
   -2.8628   -6.1485    0.0000 N   0  0
   -1.4233   -6.5700    0.0000 C   0  0
   -0.3384   -5.5341    0.0000 C   0  0
    1.1016   -5.9571    0.0000 O   0  0
    1.4560   -7.4147    0.0000 C   0  0
   -0.6928   -4.0817    0.0000 C   0  0
    0.3114   -2.9665    0.0000 C   0  0
    1.8032   -3.1233    0.0000 C   0  0
    2.4133   -1.7530    0.0000 N   0  0
    3.8805   -1.4410    0.0000 C   0  0
    1.2990   -0.7500    0.0000 C   0  0
    1.2990    0.7500    0.0000 C   0  0
    0.0000    1.5000    0.0000 C   0  0
   -1.2990    0.7500    0.0000 C   0  0
   -1.2990   -0.7500    0.0000 C   0  0
    0.0000   -1.5000    0.0000 C   0  0
   -2.1327   -3.6551    0.0000 N   0  0
   -7.1846   -4.8774    0.0000 C   0  0
   -7.5416   -3.4196    0.0000 O   0  0
   -8.9814   -2.9992    0.0000 C   0  0
   -8.2701   -5.9126    0.0000 C   0  0
   -7.9164   -7.3703    0.0000 C   0  0
   -9.0046   -8.4038    0.0000 N   0  0
   -8.6534   -9.8621    0.0000 C   0  0
  -10.4441   -7.9790    0.0000 C   0  0
  -11.5323   -9.0126    0.0000 C   0  0
  -12.9718   -8.5878    0.0000 N   0  0
  -14.0594   -9.6207    0.0000 C   0  0
  -13.3230   -7.1295    0.0000 C   0  0
  1  2  2  0
  2  3  2  0
  3  4  1  0
  4  5  2  0
  4  6  1  0
  6  7  1  0
  7  8  2  0
  8  9  1  0
  9 10  1  0
 10 11  1  0
 11 12  2  0
 12 13  1  0
 13 14  2  0
 14 15  1  0
 15 16  1  0
 14 17  1  0
 17 18  1  0
 18 19  2  0
 19 20  1  0
 20 21  1  0
 20 22  1  0
 22 23  2  0
 23 24  1  0
 24 25  2  0
 25 26  1  0
 26 27  2  0
 27 18  1  0
 27 22  1  0
 17 28  2  0
 28 11  1  0
  9 29  2  0
 29 30  1  0
 30 31  1  0
 29 32  1  0
 32 33  2  0
 33  7  1  0
 33 34  1  0
 34 35  1  0
 34 36  1  0
 36 37  1  0
 37 38  1  0
 38 39  1  0
 38 40  1  0
M  END
> <Name>
CHEMBL4282688

> <pChEMBL_Value>
9.15

$$$$
CHEMBL4279016
  SciTegic08122012322D

 44 49  0  0  0  0            999 V2000
   -1.4420  -11.9701    0.0000 C   0  0
   -2.8819  -11.5497    0.0000 C   0  0
   -4.3226  -11.1290    0.0000 C   0  0
   -4.6795   -9.6712    0.0000 C   0  0
   -3.5958   -8.6342    0.0000 O   0  0
   -6.1202   -9.2506    0.0000 N   0  0
   -6.4771   -7.7928    0.0000 C   0  0
   -5.3916   -6.7576    0.0000 C   0  0
   -5.7452   -5.2998    0.0000 C   0  0
   -4.6570   -4.2663    0.0000 N   0  0
   -3.2175   -4.6910    0.0000 C   0  0
   -2.8628   -6.1485    0.0000 N   0  0
   -1.4233   -6.5700    0.0000 C   0  0
   -0.3384   -5.5341    0.0000 C   0  0
   -0.6928   -4.0817    0.0000 C   0  0
    0.3114   -2.9665    0.0000 C   0  0
    1.8032   -3.1233    0.0000 C   0  0
    2.4133   -1.7530    0.0000 N   0  0
    3.8805   -1.4410    0.0000 C   0  0
    1.2990   -0.7500    0.0000 C   0  0
    1.2990    0.7500    0.0000 C   0  0
    0.0000    1.5000    0.0000 C   0  0
   -1.2990    0.7500    0.0000 C   0  0
   -1.2990   -0.7500    0.0000 C   0  0
    0.0000   -1.5000    0.0000 C   0  0
   -2.1327   -3.6551    0.0000 N   0  0
   -7.1846   -4.8774    0.0000 C   0  0
   -7.5416   -3.4196    0.0000 O   0  0
   -8.9814   -2.9992    0.0000 C   0  0
   -8.2701   -5.9126    0.0000 C   0  0
   -7.9164   -7.3703    0.0000 C   0  0
   -9.0024   -8.4060    0.0000 N   0  0
  -10.4425   -7.9859    0.0000 C   0  0
  -11.5263   -9.0228    0.0000 C   0  0
  -11.1703  -10.4799    0.0000 C   0  0
  -12.2547  -11.5173    0.0000 N   0  0
  -13.6954  -11.0995    0.0000 C   0  0
  -14.7776  -12.1381    0.0000 C   0  0
  -14.4193  -13.5947    0.0000 N   0  0
  -15.5015  -14.6333    0.0000 C   0  0
  -12.9787  -14.0126    0.0000 C   0  0
  -11.8964  -12.9740    0.0000 C   0  0
   -9.7303  -10.9001    0.0000 C   0  0
   -8.6465   -9.8632    0.0000 C   0  0
  1  2  2  0
  2  3  2  0
  3  4  1  0
  4  5  2  0
  4  6  1  0
  6  7  1  0
  7  8  2  0
  8  9  1  0
  9 10  1  0
 10 11  1  0
 11 12  2  0
 12 13  1  0
 13 14  2  0
 14 15  1  0
 15 16  1  0
 16 17  2  0
 17 18  1  0
 18 19  1  0
 18 20  1  0
 20 21  2  0
 21 22  1  0
 22 23  2  0
 23 24  1  0
 24 25  2  0
 25 16  1  0
 25 20  1  0
 15 26  2  0
 26 11  1  0
  9 27  2  0
 27 28  1  0
 28 29  1  0
 27 30  1  0
 30 31  2  0
 31  7  1  0
 31 32  1  0
 32 33  1  0
 33 34  1  0
 34 35  1  0
 35 36  1  0
 36 37  1  0
 37 38  1  0
 38 39  1  0
 39 40  1  0
 39 41  1  0
 41 42  1  0
 42 36  1  0
 35 43  1  0
 43 44  1  0
 44 32  1  0
M  END
> <Name>
CHEMBL4279016

> <pChEMBL_Value>
9.15

$$$$
CHEMBL4279057
  SciTegic08122012322D

 39 43  0  0  0  0            999 V2000
   -1.4420  -11.9701    0.0000 C   0  0
   -2.8819  -11.5497    0.0000 C   0  0
   -4.3226  -11.1290    0.0000 C   0  0
   -4.6795   -9.6712    0.0000 C   0  0
   -3.5958   -8.6342    0.0000 O   0  0
   -6.1202   -9.2506    0.0000 N   0  0
   -6.4771   -7.7928    0.0000 C   0  0
   -5.3916   -6.7576    0.0000 C   0  0
   -5.7452   -5.2998    0.0000 C   0  0
   -4.6570   -4.2663    0.0000 N   0  0
   -3.2175   -4.6910    0.0000 C   0  0
   -2.8628   -6.1485    0.0000 N   0  0
   -1.4233   -6.5700    0.0000 C   0  0
   -0.3384   -5.5341    0.0000 C   0  0
   -0.6928   -4.0817    0.0000 C   0  0
    0.3114   -2.9665    0.0000 C   0  0
    1.8032   -3.1233    0.0000 C   0  0
    2.4133   -1.7530    0.0000 N   0  0
    3.8805   -1.4410    0.0000 C   0  0
    1.2990   -0.7500    0.0000 C   0  0
    1.2990    0.7500    0.0000 C   0  0
    0.0000    1.5000    0.0000 C   0  0
   -1.2990    0.7500    0.0000 C   0  0
   -1.2990   -0.7500    0.0000 C   0  0
    0.0000   -1.5000    0.0000 C   0  0
   -2.1327   -3.6551    0.0000 N   0  0
   -7.1846   -4.8774    0.0000 C   0  0
   -7.5416   -3.4196    0.0000 O   0  0
   -8.9814   -2.9992    0.0000 C   0  0
   -8.2701   -5.9126    0.0000 C   0  0
   -7.9164   -7.3703    0.0000 C   0  0
   -9.0024   -8.4060    0.0000 N   0  0
  -10.4626   -8.1235    0.0000 C   0  0
  -11.1730   -9.4446    0.0000 C   0  0
  -10.1361  -10.5285    0.0000 C   0  0
  -10.4001  -12.0033    0.0000 N   0  0
   -9.2542  -12.9712    0.0000 C   0  0
  -11.8112  -12.5122    0.0000 C   0  0
   -8.7849   -9.8773    0.0000 C   0  0
  1  2  2  0
  2  3  2  0
  3  4  1  0
  4  5  2  0
  4  6  1  0
  6  7  1  0
  7  8  2  0
  8  9  1  0
  9 10  1  0
 10 11  1  0
 11 12  2  0
 12 13  1  0
 13 14  2  0
 14 15  1  0
 15 16  1  0
 16 17  2  0
 17 18  1  0
 18 19  1  0
 18 20  1  0
 20 21  2  0
 21 22  1  0
 22 23  2  0
 23 24  1  0
 24 25  2  0
 25 16  1  0
 25 20  1  0
 15 26  2  0
 26 11  1  0
  9 27  2  0
 27 28  1  0
 28 29  1  0
 27 30  1  0
 30 31  2  0
 31  7  1  0
 31 32  1  0
 32 33  1  0
 33 34  1  0
 34 35  1  0
 35 36  1  0
 36 37  1  0
 36 38  1  0
 35 39  1  0
 39 32  1  0
M  END
> <Name>
CHEMBL4279057

> <pChEMBL_Value>
9.15

$$$$
CHEMBL4294211
  SciTegic08122012322D

 43 48  0  0  0  0            999 V2000
   -1.4420  -11.9701    0.0000 C   0  0
   -2.8819  -11.5497    0.0000 C   0  0
   -4.3226  -11.1290    0.0000 C   0  0
   -4.6795   -9.6712    0.0000 C   0  0
   -3.5958   -8.6342    0.0000 O   0  0
   -6.1202   -9.2506    0.0000 N   0  0
   -6.4771   -7.7928    0.0000 C   0  0
   -5.3916   -6.7576    0.0000 C   0  0
   -5.7452   -5.2998    0.0000 C   0  0
   -4.6570   -4.2663    0.0000 N   0  0
   -3.2175   -4.6910    0.0000 C   0  0
   -2.8628   -6.1485    0.0000 N   0  0
   -1.4233   -6.5700    0.0000 C   0  0
   -0.3384   -5.5341    0.0000 C   0  0
   -0.6928   -4.0817    0.0000 C   0  0
    0.3114   -2.9665    0.0000 C   0  0
    1.8032   -3.1233    0.0000 C   0  0
    2.4133   -1.7530    0.0000 N   0  0
    3.8805   -1.4410    0.0000 C   0  0
    1.2990   -0.7500    0.0000 C   0  0
    1.2990    0.7500    0.0000 C   0  0
    0.0000    1.5000    0.0000 C   0  0
   -1.2990    0.7500    0.0000 C   0  0
   -1.2990   -0.7500    0.0000 C   0  0
    0.0000   -1.5000    0.0000 C   0  0
   -2.1327   -3.6551    0.0000 N   0  0
   -7.1846   -4.8774    0.0000 C   0  0
   -7.5416   -3.4196    0.0000 O   0  0
   -8.9814   -2.9992    0.0000 C   0  0
   -8.2701   -5.9126    0.0000 C   0  0
   -7.9164   -7.3703    0.0000 C   0  0
   -9.0024   -8.4060    0.0000 N   0  0
  -10.4425   -7.9859    0.0000 C   0  0
  -11.5263   -9.0228    0.0000 C   0  0
  -11.1703  -10.4799    0.0000 C   0  0
  -12.2547  -11.5173    0.0000 N   0  0
  -13.6954  -11.0995    0.0000 C   0  0
  -14.7776  -12.1381    0.0000 C   0  0
  -14.4193  -13.5947    0.0000 O   0  0
  -12.9787  -14.0126    0.0000 C   0  0
  -11.8964  -12.9740    0.0000 C   0  0
   -9.7303  -10.9001    0.0000 C   0  0
   -8.6465   -9.8632    0.0000 C   0  0
  1  2  2  0
  2  3  2  0
  3  4  1  0
  4  5  2  0
  4  6  1  0
  6  7  1  0
  7  8  2  0
  8  9  1  0
  9 10  1  0
 10 11  1  0
 11 12  2  0
 12 13  1  0
 13 14  2  0
 14 15  1  0
 15 16  1  0
 16 17  2  0
 17 18  1  0
 18 19  1  0
 18 20  1  0
 20 21  2  0
 21 22  1  0
 22 23  2  0
 23 24  1  0
 24 25  2  0
 25 16  1  0
 25 20  1  0
 15 26  2  0
 26 11  1  0
  9 27  2  0
 27 28  1  0
 28 29  1  0
 27 30  1  0
 30 31  2  0
 31  7  1  0
 31 32  1  0
 32 33  1  0
 33 34  1  0
 34 35  1  0
 35 36  1  0
 36 37  1  0
 37 38  1  0
 38 39  1  0
 39 40  1  0
 40 41  1  0
 41 36  1  0
 35 42  1  0
 42 43  1  0
 43 32  1  0
M  END
> <Name>
CHEMBL4294211

> <pChEMBL_Value>
9.15

$$$$
CHEMBL4293126
  SciTegic08122012322D

 39 42  0  0  0  0            999 V2000
   -1.4420  -11.9701    0.0000 C   0  0
   -2.8819  -11.5497    0.0000 C   0  0
   -4.3226  -11.1290    0.0000 C   0  0
   -4.6795   -9.6712    0.0000 C   0  0
   -3.5958   -8.6342    0.0000 O   0  0
   -6.1202   -9.2506    0.0000 N   0  0
   -6.4771   -7.7928    0.0000 C   0  0
   -5.3916   -6.7576    0.0000 C   0  0
   -5.7452   -5.2998    0.0000 C   0  0
   -4.6570   -4.2663    0.0000 N   0  0
   -3.2175   -4.6910    0.0000 C   0  0
   -2.8628   -6.1485    0.0000 N   0  0
   -1.4233   -6.5700    0.0000 C   0  0
   -0.3384   -5.5341    0.0000 C   0  0
   -0.6928   -4.0817    0.0000 C   0  0
    0.3114   -2.9665    0.0000 C   0  0
    1.8032   -3.1233    0.0000 C   0  0
    2.4133   -1.7530    0.0000 N   0  0
    3.8805   -1.4410    0.0000 C   0  0
    1.2990   -0.7500    0.0000 C   0  0
    1.2990    0.7500    0.0000 C   0  0
    0.0000    1.5000    0.0000 C   0  0
   -1.2990    0.7500    0.0000 C   0  0
   -1.2990   -0.7500    0.0000 C   0  0
    0.0000   -1.5000    0.0000 C   0  0
   -2.1327   -3.6551    0.0000 N   0  0
   -7.1846   -4.8774    0.0000 C   0  0
   -7.5416   -3.4196    0.0000 O   0  0
   -8.9822   -2.9990    0.0000 C   0  0
   -9.3390   -1.5421    0.0000 C   0  0
   -8.2701   -5.9126    0.0000 C   0  0
   -7.9164   -7.3703    0.0000 C   0  0
   -9.0046   -8.4038    0.0000 N   0  0
   -8.6534   -9.8621    0.0000 C   0  0
  -10.4441   -7.9790    0.0000 C   0  0
  -11.5323   -9.0126    0.0000 C   0  0
  -12.9718   -8.5878    0.0000 N   0  0
  -14.0594   -9.6207    0.0000 C   0  0
  -13.3230   -7.1295    0.0000 C   0  0
  1  2  2  0
  2  3  2  0
  3  4  1  0
  4  5  2  0
  4  6  1  0
  6  7  1  0
  7  8  2  0
  8  9  1  0
  9 10  1  0
 10 11  1  0
 11 12  2  0
 12 13  1  0
 13 14  2  0
 14 15  1  0
 15 16  1  0
 16 17  2  0
 17 18  1  0
 18 19  1  0
 18 20  1  0
 20 21  2  0
 21 22  1  0
 22 23  2  0
 23 24  1  0
 24 25  2  0
 25 16  1  0
 25 20  1  0
 15 26  2  0
 26 11  1  0
  9 27  2  0
 27 28  1  0
 28 29  1  0
 29 30  1  0
 27 31  1  0
 31 32  2  0
 32  7  1  0
 32 33  1  0
 33 34  1  0
 33 35  1  0
 35 36  1  0
 36 37  1  0
 37 38  1  0
 37 39  1  0
M  END
> <Name>
CHEMBL4293126

> <pChEMBL_Value>
9.10

$$$$
CHEMBL4087740
  SciTegic08122012322D

 40 44  0  0  0  0            999 V2000
    6.4757   -8.2656    0.0000 C   0  0
    5.1799   -7.5101    0.0000 C   0  0
    5.1854   -6.0093    0.0000 C   0  0
    6.4874   -5.2644    0.0000 O   0  0
    3.8888   -5.2533    0.0000 N   0  0
    3.8943   -3.7525    0.0000 C   0  0
    5.1945   -3.0045    0.0000 C   0  0
    5.1969   -1.5045    0.0000 C   0  0
    6.4971   -0.7566    0.0000 F   0  0
    3.8991   -0.7525    0.0000 C   0  0
    2.5987   -1.5004    0.0000 C   0  0
    1.2990   -0.7500    0.0000 N   0  0
    0.0000   -1.5000    0.0000 C   0  0
    0.0000   -3.0000    0.0000 O   0  0
   -1.2990   -0.7500    0.0000 C   0  0
   -1.2990    0.7500    0.0000 C   0  0
   -2.5981    1.5000    0.0000 C   0  0
    0.0000    1.5000    0.0000 C   0  0
    0.0000    3.0000    0.0000 C   0  0
    1.2990    3.7500    0.0000 N   0  0
    2.5981    3.0000    0.0000 C   0  0
    3.8994    3.7477    0.0000 N   0  0
    5.1981    2.9955    0.0000 C   0  0
    5.1929    1.4954    0.0000 C   0  0
    6.4894    0.7409    0.0000 C   0  0
    7.7910    1.4865    0.0000 C   0  0
    9.0881    0.7316    0.0000 N   0  0
    9.0854   -0.7685    0.0000 C   0  0
   10.3830   -1.5209    0.0000 C   0  0
   11.6835   -0.7733    0.0000 N   0  0
   12.9811   -1.5257    0.0000 C   0  0
   11.6863    0.7267    0.0000 C   0  0
   10.3886    1.4791    0.0000 C   0  0
    7.7962    2.9864    0.0000 C   0  0
    6.4997    3.7409    0.0000 C   0  0
    6.5081    5.2417    0.0000 O   0  0
    7.8108    5.9853    0.0000 C   0  0
    2.5981    1.5000    0.0000 N   0  0
    1.2990    0.7500    0.0000 C   0  0
    2.5965   -3.0004    0.0000 C   0  0
  1  2  2  0
  2  3  1  0
  3  4  2  0
  3  5  1  0
  5  6  1  0
  6  7  2  0
  7  8  1  0
  8  9  1  0
  8 10  2  0
 10 11  1  0
 11 12  1  0
 12 13  1  0
 13 14  2  0
 13 15  1  0
 15 16  2  0
 16 17  1  0
 16 18  1  0
 18 19  2  0
 19 20  1  0
 20 21  2  0
 21 22  1  0
 22 23  1  0
 23 24  2  0
 24 25  1  0
 25 26  2  0
 26 27  1  0
 27 28  1  0
 28 29  1  0
 29 30  1  0
 30 31  1  0
 30 32  1  0
 32 33  1  0
 33 27  1  0
 26 34  1  0
 34 35  2  0
 35 23  1  0
 35 36  1  0
 36 37  1  0
 21 38  1  0
 38 39  2  0
 39 18  1  0
 39 12  1  0
 11 40  2  0
 40  6  1  0
M  END
> <Name>
CHEMBL4087740

> <pChEMBL_Value>
9.10

$$$$
CHEMBL4129781
  SciTegic08122012322D

 44 48  0  0  0  0            999 V2000
    6.4757   -8.2656    0.0000 C   0  0
    5.1799   -7.5101    0.0000 C   0  0
    5.1854   -6.0093    0.0000 C   0  0
    6.4874   -5.2644    0.0000 O   0  0
    3.8888   -5.2533    0.0000 N   0  0
    3.8943   -3.7525    0.0000 C   0  0
    5.1945   -3.0045    0.0000 C   0  0
    5.1969   -1.5045    0.0000 C   0  0
    3.8991   -0.7525    0.0000 C   0  0
    2.5987   -1.5004    0.0000 C   0  0
    1.2990   -0.7500    0.0000 N   0  0
    0.0000   -1.5000    0.0000 C   0  0
    0.0000   -3.0000    0.0000 O   0  0
   -1.2990   -0.7500    0.0000 N   0  0
   -2.6003   -1.4977    0.0000 C   0  0
   -3.8983   -0.7459    0.0000 C   0  0
   -2.6030   -2.9977    0.0000 C   0  0
   -1.2990    0.7500    0.0000 C   0  0
   -2.5981    1.5000    0.0000 O   0  0
    0.0000    1.5000    0.0000 C   0  0
    0.0000    3.0000    0.0000 C   0  0
    1.2990    3.7500    0.0000 N   0  0
    2.5981    3.0000    0.0000 C   0  0
    3.8994    3.7477    0.0000 N   0  0
    5.1981    2.9955    0.0000 C   0  0
    5.1929    1.4954    0.0000 C   0  0
    6.4894    0.7409    0.0000 C   0  0
    7.7910    1.4865    0.0000 C   0  0
    9.0881    0.7316    0.0000 N   0  0
    9.0854   -0.7685    0.0000 C   0  0
   10.3830   -1.5209    0.0000 C   0  0
   11.6835   -0.7733    0.0000 C   0  0
   12.9834   -1.5235    0.0000 N   0  0
   14.2827   -0.7741    0.0000 C   0  0
   12.9832   -3.0235    0.0000 C   0  0
   11.6863    0.7267    0.0000 C   0  0
   10.3886    1.4791    0.0000 C   0  0
    7.7962    2.9864    0.0000 C   0  0
    6.4997    3.7409    0.0000 C   0  0
    6.5081    5.2417    0.0000 O   0  0
    7.8108    5.9853    0.0000 C   0  0
    2.5981    1.5000    0.0000 N   0  0
    1.2990    0.7500    0.0000 C   0  0
    2.5965   -3.0004    0.0000 C   0  0
  1  2  2  0
  2  3  1  0
  3  4  2  0
  3  5  1  0
  5  6  1  0
  6  7  2  0
  7  8  1  0
  8  9  2  0
  9 10  1  0
 10 11  1  0
 11 12  1  0
 12 13  2  0
 12 14  1  0
 14 15  1  0
 15 16  1  0
 15 17  1  0
 14 18  1  0
 18 19  2  0
 18 20  1  0
 20 21  2  0
 21 22  1  0
 22 23  2  0
 23 24  1  0
 24 25  1  0
 25 26  2  0
 26 27  1  0
 27 28  2  0
 28 29  1  0
 29 30  1  0
 30 31  1  0
 31 32  1  0
 32 33  1  0
 33 34  1  0
 33 35  1  0
 32 36  1  0
 36 37  1  0
 37 29  1  0
 28 38  1  0
 38 39  2  0
 39 25  1  0
 39 40  1  0
 40 41  1  0
 23 42  1  0
 42 43  2  0
 43 20  1  0
 43 11  1  0
 10 44  2  0
 44  6  1  0
M  END
> <Name>
CHEMBL4129781

> <pChEMBL_Value>
9.10

$$$$
CHEMBL4277911
  SciTegic08122012322D

 39 42  0  0  0  0            999 V2000
   -1.4420  -11.9701    0.0000 C   0  0
   -2.8819  -11.5497    0.0000 C   0  0
   -4.3226  -11.1290    0.0000 C   0  0
   -4.6795   -9.6712    0.0000 C   0  0
   -3.5958   -8.6342    0.0000 O   0  0
   -6.1202   -9.2506    0.0000 N   0  0
   -6.4771   -7.7928    0.0000 C   0  0
   -5.3916   -6.7576    0.0000 C   0  0
   -5.7452   -5.2998    0.0000 C   0  0
   -4.6570   -4.2663    0.0000 N   0  0
   -3.2175   -4.6910    0.0000 C   0  0
   -2.8628   -6.1485    0.0000 N   0  0
   -1.4233   -6.5700    0.0000 C   0  0
   -0.3384   -5.5341    0.0000 C   0  0
   -0.6928   -4.0817    0.0000 C   0  0
    0.3114   -2.9665    0.0000 C   0  0
    1.8032   -3.1233    0.0000 C   0  0
    2.4133   -1.7530    0.0000 N   0  0
    3.8805   -1.4410    0.0000 C   0  0
    1.2990   -0.7500    0.0000 C   0  0
    1.2990    0.7500    0.0000 C   0  0
    0.0000    1.5000    0.0000 C   0  0
   -1.2990    0.7500    0.0000 C   0  0
   -1.2990   -0.7500    0.0000 C   0  0
    0.0000   -1.5000    0.0000 C   0  0
   -2.1327   -3.6551    0.0000 N   0  0
   -7.1846   -4.8774    0.0000 C   0  0
   -7.5416   -3.4196    0.0000 O   0  0
   -8.9814   -2.9992    0.0000 C   0  0
   -8.2701   -5.9126    0.0000 C   0  0
   -7.9164   -7.3703    0.0000 C   0  0
   -9.0046   -8.4038    0.0000 N   0  0
   -8.6562   -9.8637    0.0000 C   0  0
   -9.7450  -10.8954    0.0000 C   0  0
  -10.4441   -7.9790    0.0000 C   0  0
  -11.5323   -9.0126    0.0000 C   0  0
  -12.9718   -8.5878    0.0000 N   0  0
  -14.0594   -9.6207    0.0000 C   0  0
  -13.3230   -7.1295    0.0000 C   0  0
  1  2  2  0
  2  3  2  0
  3  4  1  0
  4  5  2  0
  4  6  1  0
  6  7  1  0
  7  8  2  0
  8  9  1  0
  9 10  1  0
 10 11  1  0
 11 12  2  0
 12 13  1  0
 13 14  2  0
 14 15  1  0
 15 16  1  0
 16 17  2  0
 17 18  1  0
 18 19  1  0
 18 20  1  0
 20 21  2  0
 21 22  1  0
 22 23  2  0
 23 24  1  0
 24 25  2  0
 25 16  1  0
 25 20  1  0
 15 26  2  0
 26 11  1  0
  9 27  2  0
 27 28  1  0
 28 29  1  0
 27 30  1  0
 30 31  2  0
 31  7  1  0
 31 32  1  0
 32 33  1  0
 33 34  1  0
 32 35  1  0
 35 36  1  0
 36 37  1  0
 37 38  1  0
 37 39  1  0
M  END
> <Name>
CHEMBL4277911

> <pChEMBL_Value>
9.10

$$$$
CHEMBL3633143
  SciTegic08122012322D

 39 43  0  0  0  0            999 V2000
    6.4757   -8.2656    0.0000 C   0  0
    5.1799   -7.5101    0.0000 C   0  0
    5.1854   -6.0093    0.0000 C   0  0
    6.4874   -5.2644    0.0000 O   0  0
    3.8888   -5.2533    0.0000 N   0  0
    3.8943   -3.7525    0.0000 C   0  0
    5.1945   -3.0045    0.0000 C   0  0
    5.1969   -1.5045    0.0000 C   0  0
    3.8991   -0.7525    0.0000 C   0  0
    2.5987   -1.5004    0.0000 C   0  0
    1.2990   -0.7500    0.0000 N   0  0
    0.0000   -1.5000    0.0000 C   0  0
    0.0000   -3.0000    0.0000 O   0  0
   -1.2990   -0.7500    0.0000 C   0  0
   -1.2990    0.7500    0.0000 C   0  0
   -2.5981    1.5000    0.0000 C   0  0
    0.0000    1.5000    0.0000 C   0  0
    0.0000    3.0000    0.0000 C   0  0
    1.2990    3.7500    0.0000 N   0  0
    2.5981    3.0000    0.0000 C   0  0
    3.8994    3.7477    0.0000 N   0  0
    5.1981    2.9955    0.0000 C   0  0
    5.1929    1.4954    0.0000 C   0  0
    6.4894    0.7409    0.0000 C   0  0
    7.7910    1.4865    0.0000 C   0  0
    9.0881    0.7316    0.0000 N   0  0
    9.0854   -0.7685    0.0000 C   0  0
   10.3830   -1.5209    0.0000 C   0  0
   11.6835   -0.7733    0.0000 N   0  0
   12.9811   -1.5257    0.0000 C   0  0
   11.6863    0.7267    0.0000 C   0  0
   10.3886    1.4791    0.0000 C   0  0
    7.7962    2.9864    0.0000 C   0  0
    6.4997    3.7409    0.0000 C   0  0
    6.5081    5.2417    0.0000 O   0  0
    7.8108    5.9853    0.0000 C   0  0
    2.5981    1.5000    0.0000 N   0  0
    1.2990    0.7500    0.0000 C   0  0
    2.5965   -3.0004    0.0000 C   0  0
  1  2  2  0
  2  3  1  0
  3  4  2  0
  3  5  1  0
  5  6  1  0
  6  7  2  0
  7  8  1  0
  8  9  2  0
  9 10  1  0
 10 11  1  0
 11 12  1  0
 12 13  2  0
 12 14  1  0
 14 15  2  0
 15 16  1  0
 15 17  1  0
 17 18  2  0
 18 19  1  0
 19 20  2  0
 20 21  1  0
 21 22  1  0
 22 23  2  0
 23 24  1  0
 24 25  2  0
 25 26  1  0
 26 27  1  0
 27 28  1  0
 28 29  1  0
 29 30  1  0
 29 31  1  0
 31 32  1  0
 32 26  1  0
 25 33  1  0
 33 34  2  0
 34 22  1  0
 34 35  1  0
 35 36  1  0
 20 37  1  0
 37 38  2  0
 38 17  1  0
 38 11  1  0
 10 39  2  0
 39  6  1  0
M  END
> <Name>
CHEMBL3633143

> <pChEMBL_Value>
9.10

$$$$
CHEMBL2029437
  SciTegic08122012322D

 48 54  0  0  0  0            999 V2000
    6.4757   -8.2656    0.0000 C   0  0
    5.1799   -7.5101    0.0000 C   0  0
    5.1854   -6.0093    0.0000 C   0  0
    6.4874   -5.2644    0.0000 O   0  0
    3.8888   -5.2533    0.0000 N   0  0
    3.8943   -3.7525    0.0000 C   0  0
    5.1945   -3.0045    0.0000 C   0  0
    5.1969   -1.5045    0.0000 C   0  0
    3.8991   -0.7525    0.0000 C   0  0
    2.5987   -1.5004    0.0000 C   0  0
    1.2990   -0.7500    0.0000 N   0  0
    0.0000   -1.5000    0.0000 C   0  0
    0.0000   -3.0000    0.0000 O   0  0
   -1.2990   -0.7500    0.0000 N   0  0
   -2.5987   -1.5004    0.0000 C   0  0
   -2.6012   -3.0004    0.0000 C   0  0
   -3.9014   -3.7484    0.0000 C   0  0
   -5.1993   -2.9963    0.0000 C   0  0
   -6.4995   -3.7443    0.0000 C   0  0
   -7.7974   -2.9922    0.0000 C   0  0
   -7.7950   -1.4922    0.0000 C   0  0
   -6.4947   -0.7443    0.0000 C   0  0
   -5.1969   -1.4963    0.0000 C   0  0
   -3.8967   -0.7484    0.0000 C   0  0
   -1.2990    0.7500    0.0000 C   0  0
    0.0000    1.5000    0.0000 C   0  0
    0.0000    3.0000    0.0000 C   0  0
    1.2990    3.7500    0.0000 N   0  0
    2.5981    3.0000    0.0000 C   0  0
    3.8994    3.7477    0.0000 N   0  0
    5.1981    2.9955    0.0000 C   0  0
    5.1929    1.4954    0.0000 C   0  0
    6.4894    0.7409    0.0000 C   0  0
    7.7910    1.4865    0.0000 C   0  0
    9.0881    0.7316    0.0000 N   0  0
    9.0854   -0.7685    0.0000 C   0  0
   10.3830   -1.5209    0.0000 C   0  0
   11.6835   -0.7733    0.0000 N   0  0
   12.9811   -1.5257    0.0000 C   0  0
   11.6863    0.7267    0.0000 C   0  0
   10.3886    1.4791    0.0000 C   0  0
    7.7962    2.9864    0.0000 C   0  0
    6.4997    3.7409    0.0000 C   0  0
    6.5081    5.2417    0.0000 O   0  0
    7.8108    5.9853    0.0000 C   0  0
    2.5981    1.5000    0.0000 N   0  0
    1.2990    0.7500    0.0000 C   0  0
    2.5965   -3.0004    0.0000 C   0  0
  1  2  2  0
  2  3  1  0
  3  4  2  0
  3  5  1  0
  5  6  1  0
  6  7  2  0
  7  8  1  0
  8  9  2  0
  9 10  1  0
 10 11  1  0
 11 12  1  0
 12 13  2  0
 12 14  1  0
 14 15  1  0
 15 16  2  0
 16 17  1  0
 17 18  2  0
 18 19  1  0
 19 20  2  0
 20 21  1  0
 21 22  2  0
 22 23  1  0
 23 18  1  0
 23 24  2  0
 24 15  1  0
 14 25  1  0
 25 26  1  0
 26 27  2  0
 27 28  1  0
 28 29  2  0
 29 30  1  0
 30 31  1  0
 31 32  2  0
 32 33  1  0
 33 34  2  0
 34 35  1  0
 35 36  1  0
 36 37  1  0
 37 38  1  0
 38 39  1  0
 38 40  1  0
 40 41  1  0
 41 35  1  0
 34 42  1  0
 42 43  2  0
 43 31  1  0
 43 44  1  0
 44 45  1  0
 29 46  1  0
 46 47  2  0
 47 26  1  0
 47 11  1  0
 10 48  2  0
 48  6  1  0
M  END
> <Name>
CHEMBL2029437

> <pChEMBL_Value>
9.10

$$$$
CHEMBL3353410
  SciTegic08122012322D

 37 40  0  0  0  0            999 V2000
   -2.8827  -11.5495    0.0000 C   0  0
   -4.3226  -11.1290    0.0000 C   0  0
   -4.6795   -9.6712    0.0000 C   0  0
   -3.5958   -8.6342    0.0000 O   0  0
   -6.1202   -9.2506    0.0000 N   0  0
   -6.4771   -7.7928    0.0000 C   0  0
   -5.3916   -6.7576    0.0000 C   0  0
   -5.7452   -5.2998    0.0000 C   0  0
   -4.6570   -4.2663    0.0000 N   0  0
   -3.2175   -4.6910    0.0000 C   0  0
   -2.8628   -6.1485    0.0000 N   0  0
   -1.4233   -6.5700    0.0000 C   0  0
   -0.3384   -5.5341    0.0000 C   0  0
   -0.6928   -4.0817    0.0000 C   0  0
    0.3114   -2.9665    0.0000 C   0  0
    1.8032   -3.1233    0.0000 C   0  0
    2.4133   -1.7530    0.0000 N   0  0
    3.8805   -1.4410    0.0000 C   0  0
    1.2990   -0.7500    0.0000 C   0  0
    1.2990    0.7500    0.0000 C   0  0
    0.0000    1.5000    0.0000 C   0  0
   -1.2990    0.7500    0.0000 C   0  0
   -1.2990   -0.7500    0.0000 C   0  0
    0.0000   -1.5000    0.0000 C   0  0
   -2.1327   -3.6551    0.0000 N   0  0
   -7.1846   -4.8774    0.0000 C   0  0
   -7.5416   -3.4196    0.0000 O   0  0
   -8.9814   -2.9992    0.0000 C   0  0
   -8.2701   -5.9126    0.0000 C   0  0
   -7.9164   -7.3703    0.0000 C   0  0
   -9.0046   -8.4038    0.0000 N   0  0
   -8.6534   -9.8621    0.0000 C   0  0
  -10.4441   -7.9790    0.0000 C   0  0
  -11.5323   -9.0126    0.0000 C   0  0
  -12.9718   -8.5878    0.0000 N   0  0
  -14.0594   -9.6207    0.0000 C   0  0
  -13.3230   -7.1295    0.0000 C   0  0
  1  2  2  0
  2  3  1  0
  3  4  2  0
  3  5  1  0
  5  6  1  0
  6  7  2  0
  7  8  1  0
  8  9  1  0
  9 10  1  0
 10 11  2  0
 11 12  1  0
 12 13  2  0
 13 14  1  0
 14 15  1  0
 15 16  2  0
 16 17  1  0
 17 18  1  0
 17 19  1  0
 19 20  2  0
 20 21  1  0
 21 22  2  0
 22 23  1  0
 23 24  2  0
 24 15  1  0
 24 19  1  0
 14 25  2  0
 25 10  1  0
  8 26  2  0
 26 27  1  0
 27 28  1  0
 26 29  1  0
 29 30  2  0
 30  6  1  0
 30 31  1  0
 31 32  1  0
 31 33  1  0
 33 34  1  0
 34 35  1  0
 35 36  1  0
 35 37  1  0
M  END
> <Name>
CHEMBL3353410

> <pChEMBL_Value>
9.05

$$$$
CHEMBL4293734
  SciTegic08122012322D

 40 44  0  0  0  0            999 V2000
   -1.4420  -11.9701    0.0000 C   0  0
   -2.8819  -11.5497    0.0000 C   0  0
   -4.3226  -11.1290    0.0000 C   0  0
   -4.6795   -9.6712    0.0000 C   0  0
   -3.5958   -8.6342    0.0000 O   0  0
   -6.1202   -9.2506    0.0000 N   0  0
   -6.4771   -7.7928    0.0000 C   0  0
   -5.3916   -6.7576    0.0000 C   0  0
   -5.7452   -5.2998    0.0000 C   0  0
   -4.6570   -4.2663    0.0000 N   0  0
   -3.2175   -4.6910    0.0000 C   0  0
   -2.8628   -6.1485    0.0000 N   0  0
   -1.4233   -6.5700    0.0000 C   0  0
   -0.3384   -5.5341    0.0000 C   0  0
   -0.6928   -4.0817    0.0000 C   0  0
    0.3114   -2.9665    0.0000 C   0  0
    1.8032   -3.1233    0.0000 C   0  0
    2.4133   -1.7530    0.0000 N   0  0
    3.8805   -1.4410    0.0000 C   0  0
    1.2990   -0.7500    0.0000 C   0  0
    1.2990    0.7500    0.0000 C   0  0
    0.0000    1.5000    0.0000 C   0  0
   -1.2990    0.7500    0.0000 C   0  0
   -1.2990   -0.7500    0.0000 C   0  0
    0.0000   -1.5000    0.0000 C   0  0
   -2.1327   -3.6551    0.0000 N   0  0
   -7.1846   -4.8774    0.0000 C   0  0
   -7.5416   -3.4196    0.0000 O   0  0
   -8.9814   -2.9992    0.0000 C   0  0
   -8.2701   -5.9126    0.0000 C   0  0
   -7.9164   -7.3703    0.0000 C   0  0
   -9.0024   -8.4060    0.0000 N   0  0
  -10.4425   -7.9859    0.0000 C   0  0
  -11.5263   -9.0228    0.0000 C   0  0
  -11.1703  -10.4799    0.0000 C   0  0
  -12.2526  -11.5196    0.0000 N   0  0
  -11.8945  -12.9763    0.0000 C   0  0
  -13.6933  -11.1019    0.0000 C   0  0
   -9.7303  -10.9001    0.0000 C   0  0
   -8.6465   -9.8632    0.0000 C   0  0
  1  2  2  0
  2  3  2  0
  3  4  1  0
  4  5  2  0
  4  6  1  0
  6  7  1  0
  7  8  2  0
  8  9  1  0
  9 10  1  0
 10 11  1  0
 11 12  2  0
 12 13  1  0
 13 14  2  0
 14 15  1  0
 15 16  1  0
 16 17  2  0
 17 18  1  0
 18 19  1  0
 18 20  1  0
 20 21  2  0
 21 22  1  0
 22 23  2  0
 23 24  1  0
 24 25  2  0
 25 16  1  0
 25 20  1  0
 15 26  2  0
 26 11  1  0
  9 27  2  0
 27 28  1  0
 28 29  1  0
 27 30  1  0
 30 31  2  0
 31  7  1  0
 31 32  1  0
 32 33  1  0
 33 34  1  0
 34 35  1  0
 35 36  1  0
 36 37  1  0
 36 38  1  0
 35 39  1  0
 39 40  1  0
 40 32  1  0
M  END
> <Name>
CHEMBL4293734

> <pChEMBL_Value>
9.00

$$$$
CHEMBL4287141
  SciTegic08122012322D

 39 42  0  0  0  0            999 V2000
   -1.4420  -11.9701    0.0000 C   0  0
   -2.8819  -11.5497    0.0000 C   0  0
   -4.3226  -11.1290    0.0000 C   0  0
   -4.6795   -9.6712    0.0000 C   0  0
   -3.5958   -8.6342    0.0000 O   0  0
   -6.1202   -9.2506    0.0000 N   0  0
   -6.4771   -7.7928    0.0000 C   0  0
   -5.3916   -6.7576    0.0000 C   0  0
   -5.7452   -5.2998    0.0000 C   0  0
   -4.6570   -4.2663    0.0000 N   0  0
   -3.2175   -4.6910    0.0000 C   0  0
   -2.8628   -6.1485    0.0000 N   0  0
   -1.4233   -6.5700    0.0000 C   0  0
   -0.3384   -5.5341    0.0000 C   0  0
   -0.6928   -4.0817    0.0000 C   0  0
    0.3114   -2.9665    0.0000 C   0  0
    1.8032   -3.1233    0.0000 C   0  0
    2.4133   -1.7530    0.0000 N   0  0
    3.8805   -1.4410    0.0000 C   0  0
    1.2990   -0.7500    0.0000 C   0  0
    1.2990    0.7500    0.0000 C   0  0
    0.0000    1.5000    0.0000 C   0  0
    0.0000    3.0000    0.0000 F   0  0
   -1.2990    0.7500    0.0000 C   0  0
   -1.2990   -0.7500    0.0000 C   0  0
    0.0000   -1.5000    0.0000 C   0  0
   -2.1327   -3.6551    0.0000 N   0  0
   -7.1846   -4.8774    0.0000 C   0  0
   -7.5416   -3.4196    0.0000 O   0  0
   -8.9814   -2.9992    0.0000 C   0  0
   -8.2701   -5.9126    0.0000 C   0  0
   -7.9164   -7.3703    0.0000 C   0  0
   -9.0046   -8.4038    0.0000 N   0  0
   -8.6534   -9.8621    0.0000 C   0  0
  -10.4441   -7.9790    0.0000 C   0  0
  -11.5323   -9.0126    0.0000 C   0  0
  -12.9718   -8.5878    0.0000 N   0  0
  -14.0594   -9.6207    0.0000 C   0  0
  -13.3230   -7.1295    0.0000 C   0  0
  1  2  2  0
  2  3  2  0
  3  4  1  0
  4  5  2  0
  4  6  1  0
  6  7  1  0
  7  8  2  0
  8  9  1  0
  9 10  1  0
 10 11  1  0
 11 12  2  0
 12 13  1  0
 13 14  2  0
 14 15  1  0
 15 16  1  0
 16 17  2  0
 17 18  1  0
 18 19  1  0
 18 20  1  0
 20 21  2  0
 21 22  1  0
 22 23  1  0
 22 24  2  0
 24 25  1  0
 25 26  2  0
 26 16  1  0
 26 20  1  0
 15 27  2  0
 27 11  1  0
  9 28  2  0
 28 29  1  0
 29 30  1  0
 28 31  1  0
 31 32  2  0
 32  7  1  0
 32 33  1  0
 33 34  1  0
 33 35  1  0
 35 36  1  0
 36 37  1  0
 37 38  1  0
 37 39  1  0
M  END
> <Name>
CHEMBL4287141

> <pChEMBL_Value>
9.00

$$$$
CHEMBL3633145
  SciTegic08122012322D

 45 50  0  0  0  0            999 V2000
    6.4757   -8.2656    0.0000 C   0  0
    5.1799   -7.5101    0.0000 C   0  0
    5.1854   -6.0093    0.0000 C   0  0
    6.4874   -5.2644    0.0000 O   0  0
    3.8888   -5.2533    0.0000 N   0  0
    3.8943   -3.7525    0.0000 C   0  0
    5.1945   -3.0045    0.0000 C   0  0
    5.1969   -1.5045    0.0000 C   0  0
    3.8991   -0.7525    0.0000 C   0  0
    2.5987   -1.5004    0.0000 C   0  0
    1.2990   -0.7500    0.0000 N   0  0
    0.0000   -1.5000    0.0000 C   0  0
    0.0000   -3.0000    0.0000 O   0  0
   -1.2990   -0.7500    0.0000 C   0  0
   -2.6003   -1.4977    0.0000 C   0  0
   -3.8990   -0.7455    0.0000 C   0  0
   -5.2007   -1.4909    0.0000 C   0  0
   -6.4972   -0.7364    0.0000 C   0  0
   -6.4920    0.7636    0.0000 C   0  0
   -5.1903    1.5091    0.0000 C   0  0
   -3.8939    0.7546    0.0000 C   0  0
   -1.2990    0.7500    0.0000 C   0  0
    0.0000    1.5000    0.0000 C   0  0
    0.0000    3.0000    0.0000 C   0  0
    1.2990    3.7500    0.0000 N   0  0
    2.5981    3.0000    0.0000 C   0  0
    3.8994    3.7477    0.0000 N   0  0
    5.1981    2.9955    0.0000 C   0  0
    5.1929    1.4954    0.0000 C   0  0
    6.4894    0.7409    0.0000 C   0  0
    7.7910    1.4865    0.0000 C   0  0
    9.0881    0.7316    0.0000 N   0  0
    9.0854   -0.7685    0.0000 C   0  0
   10.3830   -1.5209    0.0000 C   0  0
   11.6835   -0.7733    0.0000 N   0  0
   12.9811   -1.5257    0.0000 C   0  0
   11.6863    0.7267    0.0000 C   0  0
   10.3886    1.4791    0.0000 C   0  0
    7.7962    2.9864    0.0000 C   0  0
    6.4997    3.7409    0.0000 C   0  0
    6.5081    5.2417    0.0000 O   0  0
    7.8108    5.9853    0.0000 C   0  0
    2.5981    1.5000    0.0000 N   0  0
    1.2990    0.7500    0.0000 C   0  0
    2.5965   -3.0004    0.0000 C   0  0
  1  2  2  0
  2  3  1  0
  3  4  2  0
  3  5  1  0
  5  6  1  0
  6  7  2  0
  7  8  1  0
  8  9  2  0
  9 10  1  0
 10 11  1  0
 11 12  1  0
 12 13  2  0
 12 14  1  0
 14 15  1  0
 15 16  1  0
 16 17  2  0
 17 18  1  0
 18 19  2  0
 19 20  1  0
 20 21  2  0
 21 16  1  0
 14 22  2  0
 22 23  1  0
 23 24  2  0
 24 25  1  0
 25 26  2  0
 26 27  1  0
 27 28  1  0
 28 29  2  0
 29 30  1  0
 30 31  2  0
 31 32  1  0
 32 33  1  0
 33 34  1  0
 34 35  1  0
 35 36  1  0
 35 37  1  0
 37 38  1  0
 38 32  1  0
 31 39  1  0
 39 40  2  0
 40 28  1  0
 40 41  1  0
 41 42  1  0
 26 43  1  0
 43 44  2  0
 44 23  1  0
 44 11  1  0
 10 45  2  0
 45  6  1  0
M  END
> <Name>
CHEMBL3633145

> <pChEMBL_Value>
9.00

$$$$
CHEMBL4290568
  SciTegic08122012322D

 39 42  0  0  0  0            999 V2000
   -1.4420  -11.9701    0.0000 C   0  0
   -2.8819  -11.5497    0.0000 C   0  0
   -4.3226  -11.1290    0.0000 C   0  0
   -4.6795   -9.6712    0.0000 C   0  0
   -3.5958   -8.6342    0.0000 O   0  0
   -6.1202   -9.2506    0.0000 N   0  0
   -6.4771   -7.7928    0.0000 C   0  0
   -5.3916   -6.7576    0.0000 C   0  0
   -5.7452   -5.2998    0.0000 C   0  0
   -4.6570   -4.2663    0.0000 N   0  0
   -3.2175   -4.6910    0.0000 C   0  0
   -2.8628   -6.1485    0.0000 N   0  0
   -1.4233   -6.5700    0.0000 C   0  0
   -0.3384   -5.5341    0.0000 C   0  0
    1.1012   -5.9552    0.0000 C   0  0
   -0.6928   -4.0817    0.0000 C   0  0
    0.3114   -2.9665    0.0000 C   0  0
    1.8032   -3.1233    0.0000 C   0  0
    2.4133   -1.7530    0.0000 N   0  0
    3.8805   -1.4410    0.0000 C   0  0
    1.2990   -0.7500    0.0000 C   0  0
    1.2990    0.7500    0.0000 C   0  0
    0.0000    1.5000    0.0000 C   0  0
   -1.2990    0.7500    0.0000 C   0  0
   -1.2990   -0.7500    0.0000 C   0  0
    0.0000   -1.5000    0.0000 C   0  0
   -2.1327   -3.6551    0.0000 N   0  0
   -7.1846   -4.8774    0.0000 C   0  0
   -7.5416   -3.4196    0.0000 O   0  0
   -8.9814   -2.9992    0.0000 C   0  0
   -8.2701   -5.9126    0.0000 C   0  0
   -7.9164   -7.3703    0.0000 C   0  0
   -9.0046   -8.4038    0.0000 N   0  0
   -8.6534   -9.8621    0.0000 C   0  0
  -10.4441   -7.9790    0.0000 C   0  0
  -11.5323   -9.0126    0.0000 C   0  0
  -12.9718   -8.5878    0.0000 N   0  0
  -14.0594   -9.6207    0.0000 C   0  0
  -13.3230   -7.1295    0.0000 C   0  0
  1  2  2  0
  2  3  2  0
  3  4  1  0
  4  5  2  0
  4  6  1  0
  6  7  1  0
  7  8  2  0
  8  9  1  0
  9 10  1  0
 10 11  1  0
 11 12  2  0
 12 13  1  0
 13 14  2  0
 14 15  1  0
 14 16  1  0
 16 17  1  0
 17 18  2  0
 18 19  1  0
 19 20  1  0
 19 21  1  0
 21 22  2  0
 22 23  1  0
 23 24  2  0
 24 25  1  0
 25 26  2  0
 26 17  1  0
 26 21  1  0
 16 27  2  0
 27 11  1  0
  9 28  2  0
 28 29  1  0
 29 30  1  0
 28 31  1  0
 31 32  2  0
 32  7  1  0
 32 33  1  0
 33 34  1  0
 33 35  1  0
 35 36  1  0
 36 37  1  0
 37 38  1  0
 37 39  1  0
M  END
> <Name>
CHEMBL4290568

> <pChEMBL_Value>
9.00

$$$$
CHEMBL4126630
  SciTegic08122012322D

 41 45  0  0  0  0            999 V2000
    6.4757   -8.2656    0.0000 C   0  0
    5.1799   -7.5101    0.0000 C   0  0
    5.1854   -6.0093    0.0000 C   0  0
    6.4874   -5.2644    0.0000 O   0  0
    3.8888   -5.2533    0.0000 N   0  0
    3.8943   -3.7525    0.0000 C   0  0
    5.1945   -3.0045    0.0000 C   0  0
    5.1969   -1.5045    0.0000 C   0  0
    3.8991   -0.7525    0.0000 C   0  0
    2.5987   -1.5004    0.0000 C   0  0
    1.2990   -0.7500    0.0000 N   0  0
    0.0000   -1.5000    0.0000 C   0  0
    0.0000   -3.0000    0.0000 O   0  0
   -1.2990   -0.7500    0.0000 N   0  0
   -2.6003   -1.4977    0.0000 C   0  0
   -3.8983   -0.7459    0.0000 C   0  0
   -2.6030   -2.9977    0.0000 C   0  0
   -1.2990    0.7500    0.0000 C   0  0
   -2.5981    1.5000    0.0000 O   0  0
    0.0000    1.5000    0.0000 C   0  0
    0.0000    3.0000    0.0000 C   0  0
    1.2990    3.7500    0.0000 N   0  0
    2.5981    3.0000    0.0000 C   0  0
    3.8994    3.7477    0.0000 N   0  0
    5.1981    2.9955    0.0000 C   0  0
    6.4997    3.7409    0.0000 C   0  0
    7.7962    2.9864    0.0000 C   0  0
    7.7910    1.4864    0.0000 C   0  0
    9.0881    0.7316    0.0000 N   0  0
   10.3910    1.4750    0.0000 C   0  0
   11.6862    0.7184    0.0000 C   0  0
   11.6787   -0.7816    0.0000 N   0  0
   12.9739   -1.5381    0.0000 C   0  0
   10.3759   -1.5250    0.0000 C   0  0
    9.0806   -0.7685    0.0000 C   0  0
    6.4894    0.7409    0.0000 C   0  0
    6.4842   -0.7590    0.0000 C   0  0
    5.1929    1.4954    0.0000 C   0  0
    2.5981    1.5000    0.0000 N   0  0
    1.2990    0.7500    0.0000 C   0  0
    2.5965   -3.0004    0.0000 C   0  0
  1  2  2  0
  2  3  1  0
  3  4  2  0
  3  5  1  0
  5  6  1  0
  6  7  2  0
  7  8  1  0
  8  9  2  0
  9 10  1  0
 10 11  1  0
 11 12  1  0
 12 13  2  0
 12 14  1  0
 14 15  1  0
 15 16  1  0
 15 17  1  0
 14 18  1  0
 18 19  2  0
 18 20  1  0
 20 21  2  0
 21 22  1  0
 22 23  2  0
 23 24  1  0
 24 25  1  0
 25 26  2  0
 26 27  1  0
 27 28  2  0
 28 29  1  0
 29 30  1  0
 30 31  1  0
 31 32  1  0
 32 33  1  0
 32 34  1  0
 34 35  1  0
 35 29  1  0
 28 36  1  0
 36 37  1  0
 36 38  2  0
 38 25  1  0
 23 39  1  0
 39 40  2  0
 40 20  1  0
 40 11  1  0
 10 41  2  0
 41  6  1  0
M  END
> <Name>
CHEMBL4126630

> <pChEMBL_Value>
9.00

$$$$
CHEMBL2032376
  SciTegic08122012322D

 39 43  0  0  0  0            999 V2000
    6.4757   -8.2656    0.0000 C   0  0
    5.1799   -7.5101    0.0000 C   0  0
    5.1854   -6.0093    0.0000 C   0  0
    6.4874   -5.2644    0.0000 O   0  0
    3.8888   -5.2533    0.0000 N   0  0
    3.8943   -3.7525    0.0000 C   0  0
    5.1945   -3.0045    0.0000 C   0  0
    5.1969   -1.5045    0.0000 C   0  0
    3.8991   -0.7525    0.0000 C   0  0
    2.5987   -1.5004    0.0000 C   0  0
    1.2990   -0.7500    0.0000 N   0  0
    0.0000   -1.5000    0.0000 C   0  0
    0.0000   -3.0000    0.0000 O   0  0
   -1.2990   -0.7500    0.0000 N   0  0
   -2.5981   -1.5000    0.0000 C   0  0
   -1.2990    0.7500    0.0000 C   0  0
    0.0000    1.5000    0.0000 C   0  0
    0.0000    3.0000    0.0000 C   0  0
    1.2990    3.7500    0.0000 N   0  0
    2.5981    3.0000    0.0000 C   0  0
    3.8994    3.7477    0.0000 N   0  0
    5.1981    2.9955    0.0000 C   0  0
    5.1929    1.4954    0.0000 C   0  0
    6.4894    0.7409    0.0000 C   0  0
    7.7910    1.4865    0.0000 C   0  0
    9.0881    0.7316    0.0000 N   0  0
    9.0854   -0.7685    0.0000 C   0  0
   10.3830   -1.5209    0.0000 C   0  0
   11.6835   -0.7733    0.0000 N   0  0
   12.9811   -1.5257    0.0000 C   0  0
   11.6863    0.7267    0.0000 C   0  0
   10.3886    1.4791    0.0000 C   0  0
    7.7962    2.9864    0.0000 C   0  0
    6.4997    3.7409    0.0000 C   0  0
    6.5081    5.2417    0.0000 O   0  0
    7.8108    5.9853    0.0000 C   0  0
    2.5981    1.5000    0.0000 N   0  0
    1.2990    0.7500    0.0000 C   0  0
    2.5965   -3.0004    0.0000 C   0  0
  1  2  2  0
  2  3  1  0
  3  4  2  0
  3  5  1  0
  5  6  1  0
  6  7  2  0
  7  8  1  0
  8  9  2  0
  9 10  1  0
 10 11  1  0
 11 12  1  0
 12 13  2  0
 12 14  1  0
 14 15  1  0
 14 16  1  0
 16 17  1  0
 17 18  2  0
 18 19  1  0
 19 20  2  0
 20 21  1  0
 21 22  1  0
 22 23  2  0
 23 24  1  0
 24 25  2  0
 25 26  1  0
 26 27  1  0
 27 28  1  0
 28 29  1  0
 29 30  1  0
 29 31  1  0
 31 32  1  0
 32 26  1  0
 25 33  1  0
 33 34  2  0
 34 22  1  0
 34 35  1  0
 35 36  1  0
 20 37  1  0
 37 38  2  0
 38 17  1  0
 38 11  1  0
 10 39  2  0
 39  6  1  0
M  END
> <Name>
CHEMBL2032376

> <pChEMBL_Value>
8.94

$$$$
CHEMBL2437462
  SciTegic08122012322D

 36 40  0  0  0  0            999 V2000
    6.4757   -8.2656    0.0000 C   0  0
    5.1799   -7.5101    0.0000 C   0  0
    5.1854   -6.0093    0.0000 C   0  0
    6.4874   -5.2644    0.0000 O   0  0
    3.8888   -5.2533    0.0000 N   0  0
    3.8943   -3.7525    0.0000 C   0  0
    5.1945   -3.0045    0.0000 C   0  0
    5.1969   -1.5045    0.0000 C   0  0
    3.8991   -0.7525    0.0000 C   0  0
    2.5987   -1.5004    0.0000 C   0  0
    1.2990   -0.7500    0.0000 N   0  0
    0.0000   -1.5000    0.0000 C   0  0
    0.0000   -3.0000    0.0000 O   0  0
   -1.2990   -0.7500    0.0000 C   0  0
   -1.2990    0.7500    0.0000 N   0  0
    0.0000    1.5000    0.0000 C   0  0
    0.0000    3.0000    0.0000 C   0  0
    1.2990    3.7500    0.0000 N   0  0
    2.5981    3.0000    0.0000 C   0  0
    3.8994    3.7477    0.0000 N   0  0
    5.1981    2.9955    0.0000 C   0  0
    6.4997    3.7409    0.0000 C   0  0
    7.7962    2.9864    0.0000 C   0  0
    7.7910    1.4864    0.0000 C   0  0
    9.0881    0.7316    0.0000 N   0  0
   10.3910    1.4750    0.0000 C   0  0
   11.6862    0.7184    0.0000 C   0  0
   11.6787   -0.7816    0.0000 N   0  0
   12.9739   -1.5381    0.0000 C   0  0
   10.3759   -1.5250    0.0000 C   0  0
    9.0806   -0.7685    0.0000 C   0  0
    6.4894    0.7409    0.0000 C   0  0
    5.1929    1.4954    0.0000 C   0  0
    2.5981    1.5000    0.0000 N   0  0
    1.2990    0.7500    0.0000 C   0  0
    2.5965   -3.0004    0.0000 C   0  0
  1  2  2  0
  2  3  1  0
  3  4  2  0
  3  5  1  0
  5  6  1  0
  6  7  2  0
  7  8  1  0
  8  9  2  0
  9 10  1  0
 10 11  1  0
 11 12  1  0
 12 13  2  0
 12 14  1  0
 14 15  2  0
 15 16  1  0
 16 17  2  0
 17 18  1  0
 18 19  2  0
 19 20  1  0
 20 21  1  0
 21 22  2  0
 22 23  1  0
 23 24  2  0
 24 25  1  0
 25 26  1  0
 26 27  1  0
 27 28  1  0
 28 29  1  0
 28 30  1  0
 30 31  1  0
 31 25  1  0
 24 32  1  0
 32 33  2  0
 33 21  1  0
 19 34  1  0
 34 35  2  0
 35 16  1  0
 35 11  1  0
 10 36  2  0
 36  6  1  0
M  END
> <Name>
CHEMBL2437462

> <pChEMBL_Value>
8.92

$$$$
CHEMBL4091276
  SciTegic08122012322D

 40 44  0  0  0  0            999 V2000
    6.4757   -8.2656    0.0000 C   0  0
    5.1799   -7.5101    0.0000 C   0  0
    5.1854   -6.0093    0.0000 C   0  0
    6.4874   -5.2644    0.0000 O   0  0
    3.8888   -5.2533    0.0000 N   0  0
    3.8943   -3.7525    0.0000 C   0  0
    5.1945   -3.0045    0.0000 C   0  0
    5.1969   -1.5045    0.0000 C   0  0
    3.8991   -0.7525    0.0000 C   0  0
    2.5987   -1.5004    0.0000 C   0  0
    1.2990   -0.7500    0.0000 N   0  0
    0.0000   -1.5000    0.0000 C   0  0
    0.0000   -3.0000    0.0000 O   0  0
   -1.2990   -0.7500    0.0000 C   0  0
   -1.2990    0.7500    0.0000 C   0  0
   -2.5981    1.5000    0.0000 C   0  0
    0.0000    1.5000    0.0000 C   0  0
    0.0000    3.0000    0.0000 C   0  0
    1.2990    3.7500    0.0000 N   0  0
    2.5981    3.0000    0.0000 C   0  0
    3.8994    3.7477    0.0000 N   0  0
    5.1981    2.9955    0.0000 C   0  0
    5.1929    1.4954    0.0000 C   0  0
    6.4894    0.7409    0.0000 C   0  0
    7.7910    1.4865    0.0000 C   0  0
    9.0881    0.7316    0.0000 N   0  0
    9.0854   -0.7685    0.0000 C   0  0
   10.3830   -1.5209    0.0000 C   0  0
   11.6835   -0.7733    0.0000 N   0  0
   12.9811   -1.5257    0.0000 C   0  0
   11.6863    0.7267    0.0000 C   0  0
   12.9867    1.4743    0.0000 C   0  0
   10.3886    1.4791    0.0000 C   0  0
    7.7962    2.9864    0.0000 C   0  0
    6.4997    3.7409    0.0000 C   0  0
    6.5081    5.2417    0.0000 O   0  0
    7.8108    5.9853    0.0000 C   0  0
    2.5981    1.5000    0.0000 N   0  0
    1.2990    0.7500    0.0000 C   0  0
    2.5965   -3.0004    0.0000 C   0  0
  1  2  2  0
  2  3  1  0
  3  4  2  0
  3  5  1  0
  5  6  1  0
  6  7  2  0
  7  8  1  0
  8  9  2  0
  9 10  1  0
 10 11  1  0
 11 12  1  0
 12 13  2  0
 12 14  1  0
 14 15  2  0
 15 16  1  0
 15 17  1  0
 17 18  2  0
 18 19  1  0
 19 20  2  0
 20 21  1  0
 21 22  1  0
 22 23  2  0
 23 24  1  0
 24 25  2  0
 25 26  1  0
 26 27  1  0
 27 28  1  0
 28 29  1  0
 29 30  1  0
 29 31  1  0
 31 32  1  0
 31 33  1  0
 33 26  1  0
 25 34  1  0
 34 35  2  0
 35 22  1  0
 35 36  1  0
 36 37  1  0
 20 38  1  0
 38 39  2  0
 39 17  1  0
 39 11  1  0
 10 40  2  0
 40  6  1  0
M  END
> <Name>
CHEMBL4091276

> <pChEMBL_Value>
8.92

$$$$
CHEMBL4288246
  SciTegic08122012322D

 41 45  0  0  0  0            999 V2000
   -1.4420  -11.9701    0.0000 C   0  0
   -2.8819  -11.5497    0.0000 C   0  0
   -4.3226  -11.1290    0.0000 C   0  0
   -4.6795   -9.6712    0.0000 C   0  0
   -3.5958   -8.6342    0.0000 O   0  0
   -6.1202   -9.2506    0.0000 N   0  0
   -6.4771   -7.7928    0.0000 C   0  0
   -5.3916   -6.7576    0.0000 C   0  0
   -5.7452   -5.2998    0.0000 C   0  0
   -4.6570   -4.2663    0.0000 N   0  0
   -3.2175   -4.6910    0.0000 C   0  0
   -2.8628   -6.1485    0.0000 N   0  0
   -1.4233   -6.5700    0.0000 C   0  0
   -0.3384   -5.5341    0.0000 C   0  0
   -0.6928   -4.0817    0.0000 C   0  0
    0.3114   -2.9665    0.0000 C   0  0
    1.8032   -3.1233    0.0000 C   0  0
    2.4133   -1.7530    0.0000 N   0  0
    3.8805   -1.4410    0.0000 C   0  0
    1.2990   -0.7500    0.0000 C   0  0
    1.2990    0.7500    0.0000 C   0  0
    0.0000    1.5000    0.0000 C   0  0
   -1.2990    0.7500    0.0000 C   0  0
   -1.2990   -0.7500    0.0000 C   0  0
    0.0000   -1.5000    0.0000 C   0  0
   -2.1327   -3.6551    0.0000 N   0  0
   -7.1846   -4.8774    0.0000 C   0  0
   -7.5416   -3.4196    0.0000 O   0  0
   -8.9814   -2.9992    0.0000 C   0  0
   -8.2701   -5.9126    0.0000 C   0  0
   -7.9164   -7.3703    0.0000 C   0  0
   -9.0046   -8.4038    0.0000 N   0  0
   -8.6534   -9.8621    0.0000 C   0  0
  -10.4441   -7.9790    0.0000 C   0  0
  -11.5323   -9.0126    0.0000 C   0  0
  -12.9718   -8.5878    0.0000 N   0  0
  -14.0610   -9.6192    0.0000 C   0  0
  -15.4988   -9.1917    0.0000 C   0  0
  -15.8475   -7.7328    0.0000 O   0  0
  -14.7584   -6.7014    0.0000 C   0  0
  -13.3206   -7.1288    0.0000 C   0  0
  1  2  2  0
  2  3  2  0
  3  4  1  0
  4  5  2  0
  4  6  1  0
  6  7  1  0
  7  8  2  0
  8  9  1  0
  9 10  1  0
 10 11  1  0
 11 12  2  0
 12 13  1  0
 13 14  2  0
 14 15  1  0
 15 16  1  0
 16 17  2  0
 17 18  1  0
 18 19  1  0
 18 20  1  0
 20 21  2  0
 21 22  1  0
 22 23  2  0
 23 24  1  0
 24 25  2  0
 25 16  1  0
 25 20  1  0
 15 26  2  0
 26 11  1  0
  9 27  2  0
 27 28  1  0
 28 29  1  0
 27 30  1  0
 30 31  2  0
 31  7  1  0
 31 32  1  0
 32 33  1  0
 32 34  1  0
 34 35  1  0
 35 36  1  0
 36 37  1  0
 37 38  1  0
 38 39  1  0
 39 40  1  0
 40 41  1  0
 41 36  1  0
M  END
> <Name>
CHEMBL4288246

> <pChEMBL_Value>
8.92

$$$$
CHEMBL4278815
  SciTegic08122012322D

 37 40  0  0  0  0            999 V2000
   -1.4420  -11.9701    0.0000 C   0  0
   -2.8819  -11.5497    0.0000 C   0  0
   -4.3226  -11.1290    0.0000 C   0  0
   -4.6795   -9.6712    0.0000 C   0  0
   -3.5958   -8.6342    0.0000 O   0  0
   -6.1202   -9.2506    0.0000 N   0  0
   -6.4771   -7.7928    0.0000 C   0  0
   -5.3916   -6.7576    0.0000 C   0  0
   -5.7452   -5.2998    0.0000 C   0  0
   -4.6570   -4.2663    0.0000 N   0  0
   -3.2175   -4.6910    0.0000 C   0  0
   -2.8628   -6.1485    0.0000 N   0  0
   -1.4233   -6.5700    0.0000 C   0  0
   -0.3384   -5.5341    0.0000 C   0  0
   -0.6928   -4.0817    0.0000 C   0  0
    0.3114   -2.9665    0.0000 C   0  0
    1.8032   -3.1233    0.0000 C   0  0
    2.4133   -1.7530    0.0000 N   0  0
    1.2990   -0.7500    0.0000 N   0  0
    1.2990    0.7500    0.0000 C   0  0
    0.0000    1.5000    0.0000 C   0  0
   -1.2990    0.7500    0.0000 C   0  0
   -1.2990   -0.7500    0.0000 C   0  0
    0.0000   -1.5000    0.0000 C   0  0
   -2.1327   -3.6551    0.0000 N   0  0
   -7.1846   -4.8774    0.0000 C   0  0
   -7.5416   -3.4196    0.0000 O   0  0
   -8.9814   -2.9992    0.0000 C   0  0
   -8.2701   -5.9126    0.0000 C   0  0
   -7.9164   -7.3703    0.0000 C   0  0
   -9.0046   -8.4038    0.0000 N   0  0
   -8.6534   -9.8621    0.0000 C   0  0
  -10.4441   -7.9790    0.0000 C   0  0
  -11.5323   -9.0126    0.0000 C   0  0
  -12.9718   -8.5878    0.0000 N   0  0
  -14.0594   -9.6207    0.0000 C   0  0
  -13.3230   -7.1295    0.0000 C   0  0
  1  2  2  0
  2  3  2  0
  3  4  1  0
  4  5  2  0
  4  6  1  0
  6  7  1  0
  7  8  2  0
  8  9  1  0
  9 10  1  0
 10 11  1  0
 11 12  2  0
 12 13  1  0
 13 14  2  0
 14 15  1  0
 15 16  1  0
 16 17  1  0
 17 18  2  0
 18 19  1  0
 19 20  1  0
 20 21  2  0
 21 22  1  0
 22 23  2  0
 23 24  1  0
 24 16  2  0
 24 19  1  0
 15 25  2  0
 25 11  1  0
  9 26  2  0
 26 27  1  0
 27 28  1  0
 26 29  1  0
 29 30  2  0
 30  7  1  0
 30 31  1  0
 31 32  1  0
 31 33  1  0
 33 34  1  0
 34 35  1  0
 35 36  1  0
 35 37  1  0
M  END
> <Name>
CHEMBL4278815

> <pChEMBL_Value>
8.89

$$$$
CHEMBL4286318
  SciTegic08122012322D

 38 41  0  0  0  0            999 V2000
   -1.4420  -11.9701    0.0000 C   0  0
   -2.8819  -11.5497    0.0000 C   0  0
   -4.3226  -11.1290    0.0000 C   0  0
   -4.6795   -9.6712    0.0000 C   0  0
   -3.5958   -8.6342    0.0000 O   0  0
   -6.1202   -9.2506    0.0000 N   0  0
   -6.4771   -7.7928    0.0000 C   0  0
   -5.3916   -6.7576    0.0000 C   0  0
   -5.7452   -5.2998    0.0000 C   0  0
   -4.6570   -4.2663    0.0000 N   0  0
   -3.2175   -4.6910    0.0000 C   0  0
   -2.8628   -6.1485    0.0000 N   0  0
   -1.4233   -6.5700    0.0000 C   0  0
   -0.3384   -5.5341    0.0000 C   0  0
   -0.6928   -4.0817    0.0000 C   0  0
    0.3114   -2.9665    0.0000 C   0  0
    1.8032   -3.1233    0.0000 C   0  0
    2.4133   -1.7530    0.0000 N   0  0
    3.8805   -1.4410    0.0000 C   0  0
    1.2990   -0.7500    0.0000 C   0  0
    1.2990    0.7500    0.0000 C   0  0
    0.0000    1.5000    0.0000 C   0  0
   -1.2990    0.7500    0.0000 C   0  0
   -1.2990   -0.7500    0.0000 C   0  0
    0.0000   -1.5000    0.0000 C   0  0
   -2.1327   -3.6551    0.0000 N   0  0
   -7.1846   -4.8774    0.0000 C   0  0
   -7.5416   -3.4196    0.0000 O   0  0
   -8.9814   -2.9992    0.0000 C   0  0
   -8.2701   -5.9126    0.0000 C   0  0
   -7.9164   -7.3703    0.0000 C   0  0
   -9.0046   -8.4038    0.0000 N   0  0
   -8.6534   -9.8621    0.0000 C   0  0
  -10.4441   -7.9790    0.0000 C   0  0
  -11.5323   -9.0126    0.0000 C   0  0
  -12.9718   -8.5878    0.0000 N   0  0
  -14.0594   -9.6207    0.0000 C   0  0
  -13.3230   -7.1295    0.0000 C   0  0
  1  2  2  0
  2  3  2  0
  3  4  1  0
  4  5  2  0
  4  6  1  0
  6  7  1  0
  7  8  2  0
  8  9  1  0
  9 10  1  0
 10 11  1  0
 11 12  2  0
 12 13  1  0
 13 14  2  0
 14 15  1  0
 15 16  1  0
 16 17  2  0
 17 18  1  0
 18 19  1  0
 18 20  1  0
 20 21  2  0
 21 22  1  0
 22 23  2  0
 23 24  1  0
 24 25  2  0
 25 16  1  0
 25 20  1  0
 15 26  2  0
 26 11  1  0
  9 27  2  0
 27 28  1  0
 28 29  1  0
 27 30  1  0
 30 31  2  0
 31  7  1  0
 31 32  1  0
 32 33  1  0
 32 34  1  0
 34 35  1  0
 35 36  1  0
 36 37  1  0
 36 38  1  0
M  END
> <Name>
CHEMBL4286318

> <pChEMBL_Value>
8.85

$$$$
CHEMBL2029439
  SciTegic08122012322D

 50 56  0  0  0  0            999 V2000
    6.4757   -8.2656    0.0000 C   0  0
    5.1799   -7.5101    0.0000 C   0  0
    5.1854   -6.0093    0.0000 C   0  0
    6.4874   -5.2644    0.0000 O   0  0
    3.8888   -5.2533    0.0000 N   0  0
    3.8943   -3.7525    0.0000 C   0  0
    5.1945   -3.0045    0.0000 C   0  0
    5.1969   -1.5045    0.0000 C   0  0
    3.8991   -0.7525    0.0000 C   0  0
    2.5987   -1.5004    0.0000 C   0  0
    1.2990   -0.7500    0.0000 N   0  0
    0.0000   -1.5000    0.0000 C   0  0
    0.0000   -3.0000    0.0000 O   0  0
   -1.2990   -0.7500    0.0000 N   0  0
   -2.5987   -1.5004    0.0000 C   0  0
   -2.6012   -3.0004    0.0000 C   0  0
   -3.9014   -3.7484    0.0000 C   0  0
   -5.1993   -2.9963    0.0000 C   0  0
   -6.5002   -3.7446    0.0000 C   0  0
   -6.5050   -5.2447    0.0000 C   0  0
   -7.8064   -5.9906    0.0000 C   0  0
   -9.1031   -5.2364    0.0000 C   0  0
   -9.0983   -3.7364    0.0000 C   0  0
   -7.7969   -2.9906    0.0000 C   0  0
   -5.1969   -1.4963    0.0000 C   0  0
   -3.8967   -0.7484    0.0000 C   0  0
   -1.2990    0.7500    0.0000 C   0  0
    0.0000    1.5000    0.0000 C   0  0
    0.0000    3.0000    0.0000 C   0  0
    1.2990    3.7500    0.0000 N   0  0
    2.5981    3.0000    0.0000 C   0  0
    3.8994    3.7477    0.0000 N   0  0
    5.1981    2.9955    0.0000 C   0  0
    5.1929    1.4954    0.0000 C   0  0
    6.4894    0.7409    0.0000 C   0  0
    7.7910    1.4865    0.0000 C   0  0
    9.0881    0.7316    0.0000 N   0  0
    9.0854   -0.7685    0.0000 C   0  0
   10.3830   -1.5209    0.0000 C   0  0
   11.6835   -0.7733    0.0000 N   0  0
   12.9811   -1.5257    0.0000 C   0  0
   11.6863    0.7267    0.0000 C   0  0
   10.3886    1.4791    0.0000 C   0  0
    7.7962    2.9864    0.0000 C   0  0
    6.4997    3.7409    0.0000 C   0  0
    6.5081    5.2417    0.0000 O   0  0
    7.8108    5.9853    0.0000 C   0  0
    2.5981    1.5000    0.0000 N   0  0
    1.2990    0.7500    0.0000 C   0  0
    2.5965   -3.0004    0.0000 C   0  0
  1  2  2  0
  2  3  1  0
  3  4  2  0
  3  5  1  0
  5  6  1  0
  6  7  2  0
  7  8  1  0
  8  9  2  0
  9 10  1  0
 10 11  1  0
 11 12  1  0
 12 13  2  0
 12 14  1  0
 14 15  1  0
 15 16  2  0
 16 17  1  0
 17 18  2  0
 18 19  1  0
 19 20  2  0
 20 21  1  0
 21 22  2  0
 22 23  1  0
 23 24  2  0
 24 19  1  0
 18 25  1  0
 25 26  2  0
 26 15  1  0
 14 27  1  0
 27 28  1  0
 28 29  2  0
 29 30  1  0
 30 31  2  0
 31 32  1  0
 32 33  1  0
 33 34  2  0
 34 35  1  0
 35 36  2  0
 36 37  1  0
 37 38  1  0
 38 39  1  0
 39 40  1  0
 40 41  1  0
 40 42  1  0
 42 43  1  0
 43 37  1  0
 36 44  1  0
 44 45  2  0
 45 33  1  0
 45 46  1  0
 46 47  1  0
 31 48  1  0
 48 49  2  0
 49 28  1  0
 49 11  1  0
 10 50  2  0
 50  6  1  0
M  END
> <Name>
CHEMBL2029439

> <pChEMBL_Value>
8.85

$$$$
CHEMBL2032380
  SciTegic08122012322D

 40 44  0  0  0  0            999 V2000
    6.4757   -8.2656    0.0000 C   0  0
    5.1799   -7.5101    0.0000 C   0  0
    5.1854   -6.0093    0.0000 C   0  0
    6.4874   -5.2644    0.0000 O   0  0
    3.8888   -5.2533    0.0000 N   0  0
    3.8943   -3.7525    0.0000 C   0  0
    5.1945   -3.0045    0.0000 C   0  0
    5.1969   -1.5045    0.0000 C   0  0
    3.8991   -0.7525    0.0000 C   0  0
    2.5987   -1.5004    0.0000 C   0  0
    1.2990   -0.7500    0.0000 N   0  0
    0.0000   -1.5000    0.0000 C   0  0
    0.0000   -3.0000    0.0000 O   0  0
   -1.2990   -0.7500    0.0000 N   0  0
   -2.5981   -1.5000    0.0000 C   0  0
   -1.2990    0.7500    0.0000 C   0  0
    0.0000    1.5000    0.0000 C   0  0
    0.0000    3.0000    0.0000 C   0  0
    1.2990    3.7500    0.0000 N   0  0
    2.5981    3.0000    0.0000 C   0  0
    3.8994    3.7477    0.0000 N   0  0
    5.1981    2.9955    0.0000 C   0  0
    5.1929    1.4954    0.0000 C   0  0
    6.4894    0.7409    0.0000 C   0  0
    7.7910    1.4865    0.0000 C   0  0
    9.0881    0.7316    0.0000 N   0  0
    8.9876   -0.7724    0.0000 C   0  0
   10.0853   -1.7947    0.0000 C   0  0
   11.5689   -1.5739    0.0000 C   0  0
   12.3214   -0.2762    0.0000 N   0  0
   13.8170   -0.3911    0.0000 C   0  0
   11.7760    1.1211    0.0000 C   0  0
   10.3434    1.5659    0.0000 C   0  0
    7.7962    2.9864    0.0000 C   0  0
    6.4997    3.7409    0.0000 C   0  0
    6.5081    5.2417    0.0000 O   0  0
    7.8108    5.9853    0.0000 C   0  0
    2.5981    1.5000    0.0000 N   0  0
    1.2990    0.7500    0.0000 C   0  0
    2.5965   -3.0004    0.0000 C   0  0
  1  2  2  0
  2  3  1  0
  3  4  2  0
  3  5  1  0
  5  6  1  0
  6  7  2  0
  7  8  1  0
  8  9  2  0
  9 10  1  0
 10 11  1  0
 11 12  1  0
 12 13  2  0
 12 14  1  0
 14 15  1  0
 14 16  1  0
 16 17  1  0
 17 18  2  0
 18 19  1  0
 19 20  2  0
 20 21  1  0
 21 22  1  0
 22 23  2  0
 23 24  1  0
 24 25  2  0
 25 26  1  0
 26 27  1  0
 27 28  1  0
 28 29  1  0
 29 30  1  0
 30 31  1  0
 30 32  1  0
 32 33  1  0
 33 26  1  0
 25 34  1  0
 34 35  2  0
 35 22  1  0
 35 36  1  0
 36 37  1  0
 20 38  1  0
 38 39  2  0
 39 17  1  0
 39 11  1  0
 10 40  2  0
 40  6  1  0
M  END
> <Name>
CHEMBL2032380

> <pChEMBL_Value>
8.83

$$$$
CHEMBL2029440
  SciTegic08122012322D

 51 57  0  0  0  0            999 V2000
    6.4757   -8.2656    0.0000 C   0  0
    5.1799   -7.5101    0.0000 C   0  0
    5.1854   -6.0093    0.0000 C   0  0
    6.4874   -5.2644    0.0000 O   0  0
    3.8888   -5.2533    0.0000 N   0  0
    3.8943   -3.7525    0.0000 C   0  0
    5.1945   -3.0045    0.0000 C   0  0
    5.1969   -1.5045    0.0000 C   0  0
    3.8991   -0.7525    0.0000 C   0  0
    2.5987   -1.5004    0.0000 C   0  0
    1.2990   -0.7500    0.0000 N   0  0
    0.0000   -1.5000    0.0000 C   0  0
    0.0000   -3.0000    0.0000 O   0  0
   -1.2990   -0.7500    0.0000 N   0  0
   -2.5987   -1.5004    0.0000 C   0  0
   -2.6012   -3.0004    0.0000 C   0  0
   -3.9014   -3.7484    0.0000 C   0  0
   -5.1993   -2.9963    0.0000 C   0  0
   -6.5018   -3.7420    0.0000 O   0  0
   -7.7993   -2.9877    0.0000 C   0  0
   -9.1021   -3.7310    0.0000 C   0  0
  -10.3974   -2.9745    0.0000 C   0  0
  -10.3898   -1.4745    0.0000 C   0  0
   -9.0870   -0.7311    0.0000 C   0  0
   -7.7918   -1.4876    0.0000 C   0  0
   -5.1969   -1.4963    0.0000 C   0  0
   -3.8967   -0.7484    0.0000 C   0  0
   -1.2990    0.7500    0.0000 C   0  0
    0.0000    1.5000    0.0000 C   0  0
    0.0000    3.0000    0.0000 C   0  0
    1.2990    3.7500    0.0000 N   0  0
    2.5981    3.0000    0.0000 C   0  0
    3.8994    3.7477    0.0000 N   0  0
    5.1981    2.9955    0.0000 C   0  0
    5.1929    1.4954    0.0000 C   0  0
    6.4894    0.7409    0.0000 C   0  0
    7.7910    1.4865    0.0000 C   0  0
    9.0881    0.7316    0.0000 N   0  0
    9.0854   -0.7685    0.0000 C   0  0
   10.3830   -1.5209    0.0000 C   0  0
   11.6835   -0.7733    0.0000 N   0  0
   12.9811   -1.5257    0.0000 C   0  0
   11.6863    0.7267    0.0000 C   0  0
   10.3886    1.4791    0.0000 C   0  0
    7.7962    2.9864    0.0000 C   0  0
    6.4997    3.7409    0.0000 C   0  0
    6.5081    5.2417    0.0000 O   0  0
    7.8108    5.9853    0.0000 C   0  0
    2.5981    1.5000    0.0000 N   0  0
    1.2990    0.7500    0.0000 C   0  0
    2.5965   -3.0004    0.0000 C   0  0
  1  2  2  0
  2  3  1  0
  3  4  2  0
  3  5  1  0
  5  6  1  0
  6  7  2  0
  7  8  1  0
  8  9  2  0
  9 10  1  0
 10 11  1  0
 11 12  1  0
 12 13  2  0
 12 14  1  0
 14 15  1  0
 15 16  2  0
 16 17  1  0
 17 18  2  0
 18 19  1  0
 19 20  1  0
 20 21  2  0
 21 22  1  0
 22 23  2  0
 23 24  1  0
 24 25  2  0
 25 20  1  0
 18 26  1  0
 26 27  2  0
 27 15  1  0
 14 28  1  0
 28 29  1  0
 29 30  2  0
 30 31  1  0
 31 32  2  0
 32 33  1  0
 33 34  1  0
 34 35  2  0
 35 36  1  0
 36 37  2  0
 37 38  1  0
 38 39  1  0
 39 40  1  0
 40 41  1  0
 41 42  1  0
 41 43  1  0
 43 44  1  0
 44 38  1  0
 37 45  1  0
 45 46  2  0
 46 34  1  0
 46 47  1  0
 47 48  1  0
 32 49  1  0
 49 50  2  0
 50 29  1  0
 50 11  1  0
 10 51  2  0
 51  6  1  0
M  END
> <Name>
CHEMBL2029440

> <pChEMBL_Value>
8.82

$$$$
CHEMBL4282523
  SciTegic08122012322D

 36 39  0  0  0  0            999 V2000
  -12.9391   -3.1768    0.0000 C   0  0
  -11.8522   -2.1431    0.0000 C   0  0
  -10.7646   -1.1089    0.0000 C   0  0
   -9.3249   -1.5327    0.0000 C   0  0
   -8.9727   -2.9907    0.0000 O   0  0
   -8.2373   -0.4984    0.0000 N   0  0
   -6.7976   -0.9222    0.0000 C   0  0
   -6.4479   -2.3809    0.0000 C   0  0
   -5.0098   -2.8075    0.0000 C   0  0
   -4.6570   -4.2663    0.0000 N   0  0
   -3.2175   -4.6910    0.0000 C   0  0
   -2.8628   -6.1485    0.0000 N   0  0
   -1.4233   -6.5700    0.0000 C   0  0
   -0.3384   -5.5341    0.0000 C   0  0
   -0.6928   -4.0817    0.0000 C   0  0
    0.3114   -2.9665    0.0000 C   0  0
    1.8032   -3.1233    0.0000 C   0  0
    2.4133   -1.7530    0.0000 N   0  0
    3.8805   -1.4410    0.0000 C   0  0
    1.2990   -0.7500    0.0000 C   0  0
    1.2990    0.7500    0.0000 C   0  0
    0.0000    1.5000    0.0000 C   0  0
   -1.2990    0.7500    0.0000 C   0  0
   -1.2990   -0.7500    0.0000 C   0  0
    0.0000   -1.5000    0.0000 C   0  0
   -2.1327   -3.6551    0.0000 N   0  0
   -3.9214   -1.7752    0.0000 C   0  0
   -4.2711   -0.3166    0.0000 C   0  0
   -5.7092    0.1100    0.0000 C   0  0
   -6.0560    1.5702    0.0000 N   0  0
   -7.4934    1.9992    0.0000 C   0  0
   -4.9655    2.6013    0.0000 C   0  0
   -5.3124    4.0615    0.0000 C   0  0
   -4.2219    5.0927    0.0000 N   0  0
   -4.5685    6.5521    0.0000 C   0  0
   -2.7846    4.6637    0.0000 C   0  0
  1  2  2  0
  2  3  2  0
  3  4  1  0
  4  5  2  0
  4  6  1  0
  6  7  1  0
  7  8  2  0
  8  9  1  0
  9 10  1  0
 10 11  1  0
 11 12  2  0
 12 13  1  0
 13 14  2  0
 14 15  1  0
 15 16  1  0
 16 17  2  0
 17 18  1  0
 18 19  1  0
 18 20  1  0
 20 21  2  0
 21 22  1  0
 22 23  2  0
 23 24  1  0
 24 25  2  0
 25 16  1  0
 25 20  1  0
 15 26  2  0
 26 11  1  0
  9 27  2  0
 27 28  1  0
 28 29  2  0
 29  7  1  0
 29 30  1  0
 30 31  1  0
 30 32  1  0
 32 33  1  0
 33 34  1  0
 34 35  1  0
 34 36  1  0
M  END
> <Name>
CHEMBL4282523

> <pChEMBL_Value>
8.82

$$$$
CHEMBL3545308
  SciTegic08122012322D

 40 43  0  0  0  0            999 V2000
    3.8912   -5.2570    0.0000 C   0  0
    3.8933   -3.7570    0.0000 C   0  0
    2.5951   -3.0039    0.0000 C   0  0
    1.2948   -3.7516    0.0000 O   0  0
    2.5973   -1.5031    0.0000 N   0  0
    1.2990   -0.7500    0.0000 C   0  0
    1.2990    0.7500    0.0000 C   0  0
    0.0000    1.5000    0.0000 C   0  0
   -1.2990    0.7500    0.0000 C   0  0
   -1.2990   -0.7500    0.0000 C   0  0
   -2.5972   -1.5031    0.0000 N   0  0
   -2.5951   -3.0039    0.0000 C   0  0
   -1.2935   -3.7495    0.0000 N   0  0
   -1.2883   -5.2495    0.0000 C   0  0
    0.0125   -5.9981    0.0000 N   0  0
    0.0156   -7.4989    0.0000 C   0  0
   -1.2835   -8.2490    0.0000 C   0  0
   -1.2835   -9.7490    0.0000 C   0  0
    0.0156  -10.4990    0.0000 C   0  0
    0.0156  -11.9998    0.0000 N   0  0
   -1.2823  -12.7520    0.0000 C   0  0
   -1.2799  -14.2520    0.0000 C   0  0
    0.0203  -14.9999    0.0000 N   0  0
    0.0258  -16.5007    0.0000 C   0  0
   -1.2707  -17.2550    0.0000 C   0  0
    1.3271  -17.2468    0.0000 O   0  0
    1.3182  -14.2478    0.0000 C   0  0
    1.3158  -12.7478    0.0000 C   0  0
    1.3146   -9.7490    0.0000 C   0  0
    1.3146   -8.2490    0.0000 C   0  0
    2.6159   -7.5013    0.0000 O   0  0
    3.9139   -8.2532    0.0000 C   0  0
   -2.5847   -6.0040    0.0000 N   0  0
   -3.8863   -5.2585    0.0000 C   0  0
   -3.8915   -3.7585    0.0000 C   0  0
   -5.1939   -3.0126    0.0000 C   0  0
   -6.4908   -3.7663    0.0000 F   0  0
   -5.1987   -1.5126    0.0000 F   0  0
   -6.4952   -2.2666    0.0000 F   0  0
    0.0000   -1.5000    0.0000 C   0  0
  1  2  2  0
  2  3  1  0
  3  4  2  0
  3  5  1  0
  5  6  1  0
  6  7  2  0
  7  8  1  0
  8  9  2  0
  9 10  1  0
 10 11  1  0
 11 12  1  0
 12 13  2  0
 13 14  1  0
 14 15  1  0
 15 16  1  0
 16 17  2  0
 17 18  1  0
 18 19  2  0
 19 20  1  0
 20 21  1  0
 21 22  1  0
 22 23  1  0
 23 24  1  0
 24 25  1  0
 24 26  2  0
 23 27  1  0
 27 28  1  0
 28 20  1  0
 19 29  1  0
 29 30  2  0
 30 16  1  0
 30 31  1  0
 31 32  1  0
 14 33  2  0
 33 34  1  0
 34 35  2  0
 35 12  1  0
 35 36  1  0
 36 37  1  0
 36 38  1  0
 36 39  1  0
 10 40  2  0
 40  6  1  0
M  END
> <Name>
CHEMBL3545308

> <pChEMBL_Value>
8.80

$$$$
CHEMBL4103194
  SciTegic08122012322D

 44 48  0  0  0  0            999 V2000
   10.3961   -1.5214    0.0000 C   0  0
    9.0994   -0.7675    0.0000 C   0  0
    7.7969   -1.5132    0.0000 C   0  0
    7.7919   -3.0132    0.0000 O   0  0
    6.4994   -0.7589    0.0000 N   0  0
    5.1969   -1.5045    0.0000 C   0  0
    3.8991   -0.7525    0.0000 C   0  0
    2.5987   -1.5004    0.0000 C   0  0
    1.2990   -0.7500    0.0000 N   0  0
    1.2990    0.7500    0.0000 C   0  0
    2.5981    1.5000    0.0000 O   0  0
    0.0000    1.5000    0.0000 C   0  0
   -1.2990    0.7500    0.0000 C   0  0
   -2.5981    1.5000    0.0000 C   0  0
   -1.2990   -0.7500    0.0000 C   0  0
   -2.5981   -1.5000    0.0000 C   0  0
   -2.5981   -3.0000    0.0000 N   0  0
   -1.2990   -3.7500    0.0000 C   0  0
   -1.2959   -5.2508    0.0000 N   0  0
   -2.5937   -6.0048    0.0000 C   0  0
   -3.8933   -5.2556    0.0000 C   0  0
   -5.1918   -6.0065    0.0000 C   0  0
   -5.1908   -7.5065    0.0000 C   0  0
   -6.4900   -8.2577    0.0000 N   0  0
   -7.7908   -7.5107    0.0000 C   0  0
   -9.0882   -8.2636    0.0000 C   0  0
   -9.0848   -9.7636    0.0000 N   0  0
  -10.3822  -10.5166    0.0000 C   0  0
   -7.7841  -10.5107    0.0000 C   0  0
   -7.7807  -12.0107    0.0000 C   0  0
   -6.4867   -9.7578    0.0000 C   0  0
   -3.8913   -8.2556    0.0000 C   0  0
   -2.5928   -7.5048    0.0000 C   0  0
   -1.2941   -8.2571    0.0000 O   0  0
   -1.2953   -9.7571    0.0000 C   0  0
    0.0000   -3.0000    0.0000 N   0  0
    0.0000   -1.5000    0.0000 C   0  0
    2.5965   -3.0004    0.0000 C   0  0
    3.8943   -3.7525    0.0000 C   0  0
    3.8919   -5.2533    0.0000 C   0  0
    2.5922   -6.0021    0.0000 F   0  0
    5.1900   -6.0050    0.0000 F   0  0
    3.8903   -6.7533    0.0000 F   0  0
    5.1945   -3.0045    0.0000 C   0  0
  1  2  2  0
  2  3  1  0
  3  4  2  0
  3  5  1  0
  5  6  1  0
  6  7  2  0
  7  8  1  0
  8  9  1  0
  9 10  1  0
 10 11  2  0
 10 12  1  0
 12 13  2  0
 13 14  1  0
 13 15  1  0
 15 16  2  0
 16 17  1  0
 17 18  2  0
 18 19  1  0
 19 20  1  0
 20 21  2  0
 21 22  1  0
 22 23  2  0
 23 24  1  0
 24 25  1  0
 25 26  1  0
 26 27  1  0
 27 28  1  0
 27 29  1  0
 29 30  1  0
 29 31  1  0
 31 24  1  0
 23 32  1  0
 32 33  2  0
 33 20  1  0
 33 34  1  0
 34 35  1  0
 18 36  1  0
 36 37  2  0
 37 15  1  0
 37  9  1  0
  8 38  2  0
 38 39  1  0
 39 40  1  0
 40 41  1  0
 40 42  1  0
 40 43  1  0
 39 44  2  0
 44  6  1  0
M  END
> <Name>
CHEMBL4103194

> <pChEMBL_Value>
8.80

$$$$
CHEMBL2029441
  SciTegic08122012322D

 52 58  0  0  0  0            999 V2000
    6.4757   -8.2656    0.0000 C   0  0
    5.1799   -7.5101    0.0000 C   0  0
    5.1854   -6.0093    0.0000 C   0  0
    6.4874   -5.2644    0.0000 O   0  0
    3.8888   -5.2533    0.0000 N   0  0
    3.8943   -3.7525    0.0000 C   0  0
    5.1945   -3.0045    0.0000 C   0  0
    5.1969   -1.5045    0.0000 C   0  0
    3.8991   -0.7525    0.0000 C   0  0
    2.5987   -1.5004    0.0000 C   0  0
    1.2990   -0.7500    0.0000 N   0  0
    0.0000   -1.5000    0.0000 C   0  0
    0.0000   -3.0000    0.0000 O   0  0
   -1.2990   -0.7500    0.0000 N   0  0
   -2.5987   -1.5004    0.0000 C   0  0
   -2.6012   -3.0004    0.0000 C   0  0
   -3.9014   -3.7484    0.0000 C   0  0
   -5.1993   -2.9963    0.0000 C   0  0
   -6.5018   -3.7420    0.0000 O   0  0
   -7.7993   -2.9877    0.0000 C   0  0
   -9.1017   -3.7333    0.0000 C   0  0
  -10.3996   -2.9813    0.0000 C   0  0
  -11.6999   -3.7292    0.0000 C   0  0
  -11.7023   -5.2292    0.0000 C   0  0
  -10.4045   -5.9813    0.0000 C   0  0
   -9.1042   -5.2334    0.0000 C   0  0
   -5.1969   -1.4963    0.0000 C   0  0
   -3.8967   -0.7484    0.0000 C   0  0
   -1.2990    0.7500    0.0000 C   0  0
    0.0000    1.5000    0.0000 C   0  0
    0.0000    3.0000    0.0000 C   0  0
    1.2990    3.7500    0.0000 N   0  0
    2.5981    3.0000    0.0000 C   0  0
    3.8994    3.7477    0.0000 N   0  0
    5.1981    2.9955    0.0000 C   0  0
    5.1929    1.4954    0.0000 C   0  0
    6.4894    0.7409    0.0000 C   0  0
    7.7910    1.4865    0.0000 C   0  0
    9.0881    0.7316    0.0000 N   0  0
    9.0854   -0.7685    0.0000 C   0  0
   10.3830   -1.5209    0.0000 C   0  0
   11.6835   -0.7733    0.0000 N   0  0
   12.9811   -1.5257    0.0000 C   0  0
   11.6863    0.7267    0.0000 C   0  0
   10.3886    1.4791    0.0000 C   0  0
    7.7962    2.9864    0.0000 C   0  0
    6.4997    3.7409    0.0000 C   0  0
    6.5081    5.2417    0.0000 O   0  0
    7.8108    5.9853    0.0000 C   0  0
    2.5981    1.5000    0.0000 N   0  0
    1.2990    0.7500    0.0000 C   0  0
    2.5965   -3.0004    0.0000 C   0  0
  1  2  2  0
  2  3  1  0
  3  4  2  0
  3  5  1  0
  5  6  1  0
  6  7  2  0
  7  8  1  0
  8  9  2  0
  9 10  1  0
 10 11  1  0
 11 12  1  0
 12 13  2  0
 12 14  1  0
 14 15  1  0
 15 16  2  0
 16 17  1  0
 17 18  2  0
 18 19  1  0
 19 20  1  0
 20 21  1  0
 21 22  2  0
 22 23  1  0
 23 24  2  0
 24 25  1  0
 25 26  2  0
 26 21  1  0
 18 27  1  0
 27 28  2  0
 28 15  1  0
 14 29  1  0
 29 30  1  0
 30 31  2  0
 31 32  1  0
 32 33  2  0
 33 34  1  0
 34 35  1  0
 35 36  2  0
 36 37  1  0
 37 38  2  0
 38 39  1  0
 39 40  1  0
 40 41  1  0
 41 42  1  0
 42 43  1  0
 42 44  1  0
 44 45  1  0
 45 39  1  0
 38 46  1  0
 46 47  2  0
 47 35  1  0
 47 48  1  0
 48 49  1  0
 33 50  1  0
 50 51  2  0
 51 30  1  0
 51 11  1  0
 10 52  2  0
 52  6  1  0
M  END
> <Name>
CHEMBL2029441

> <pChEMBL_Value>
8.78

$$$$
CHEMBL4078120
  SciTegic08122012322D

 40 44  0  0  0  0            999 V2000
    6.4757   -8.2656    0.0000 C   0  0
    5.1799   -7.5101    0.0000 C   0  0
    5.1854   -6.0093    0.0000 C   0  0
    6.4874   -5.2644    0.0000 O   0  0
    3.8888   -5.2533    0.0000 N   0  0
    3.8943   -3.7525    0.0000 C   0  0
    5.1945   -3.0045    0.0000 C   0  0
    5.1969   -1.5045    0.0000 C   0  0
    6.4971   -0.7566    0.0000 C   0  0
    3.8991   -0.7525    0.0000 C   0  0
    2.5987   -1.5004    0.0000 C   0  0
    1.2990   -0.7500    0.0000 N   0  0
    0.0000   -1.5000    0.0000 C   0  0
    0.0000   -3.0000    0.0000 O   0  0
   -1.2990   -0.7500    0.0000 C   0  0
   -1.2990    0.7500    0.0000 C   0  0
   -2.5981    1.5000    0.0000 C   0  0
    0.0000    1.5000    0.0000 C   0  0
    0.0000    3.0000    0.0000 C   0  0
    1.2990    3.7500    0.0000 N   0  0
    2.5981    3.0000    0.0000 C   0  0
    3.8994    3.7477    0.0000 N   0  0
    5.1981    2.9955    0.0000 C   0  0
    5.1929    1.4954    0.0000 C   0  0
    6.4894    0.7409    0.0000 C   0  0
    7.7910    1.4865    0.0000 C   0  0
    9.0881    0.7316    0.0000 N   0  0
    9.0854   -0.7685    0.0000 C   0  0
   10.3830   -1.5209    0.0000 C   0  0
   11.6835   -0.7733    0.0000 N   0  0
   12.9811   -1.5257    0.0000 C   0  0
   11.6863    0.7267    0.0000 C   0  0
   10.3886    1.4791    0.0000 C   0  0
    7.7962    2.9864    0.0000 C   0  0
    6.4997    3.7409    0.0000 C   0  0
    6.5081    5.2417    0.0000 O   0  0
    7.8108    5.9853    0.0000 C   0  0
    2.5981    1.5000    0.0000 N   0  0
    1.2990    0.7500    0.0000 C   0  0
    2.5965   -3.0004    0.0000 C   0  0
  1  2  2  0
  2  3  1  0
  3  4  2  0
  3  5  1  0
  5  6  1  0
  6  7  2  0
  7  8  1  0
  8  9  1  0
  8 10  2  0
 10 11  1  0
 11 12  1  0
 12 13  1  0
 13 14  2  0
 13 15  1  0
 15 16  2  0
 16 17  1  0
 16 18  1  0
 18 19  2  0
 19 20  1  0
 20 21  2  0
 21 22  1  0
 22 23  1  0
 23 24  2  0
 24 25  1  0
 25 26  2  0
 26 27  1  0
 27 28  1  0
 28 29  1  0
 29 30  1  0
 30 31  1  0
 30 32  1  0
 32 33  1  0
 33 27  1  0
 26 34  1  0
 34 35  2  0
 35 23  1  0
 35 36  1  0
 36 37  1  0
 21 38  1  0
 38 39  2  0
 39 18  1  0
 39 12  1  0
 11 40  2  0
 40  6  1  0
M  END
> <Name>
CHEMBL4078120

> <pChEMBL_Value>
8.74

$$$$
CHEMBL4095439
  SciTegic08122012322D

 40 44  0  0  0  0            999 V2000
    6.4757   -8.2656    0.0000 C   0  0
    5.1799   -7.5101    0.0000 C   0  0
    5.1854   -6.0093    0.0000 C   0  0
    6.4874   -5.2644    0.0000 O   0  0
    3.8888   -5.2533    0.0000 N   0  0
    3.8943   -3.7525    0.0000 C   0  0
    5.1945   -3.0045    0.0000 C   0  0
    5.1969   -1.5045    0.0000 C   0  0
    6.4971   -0.7566    0.0000 Br  0  0
    3.8991   -0.7525    0.0000 C   0  0
    2.5987   -1.5004    0.0000 C   0  0
    1.2990   -0.7500    0.0000 N   0  0
    0.0000   -1.5000    0.0000 C   0  0
    0.0000   -3.0000    0.0000 O   0  0
   -1.2990   -0.7500    0.0000 C   0  0
   -1.2990    0.7500    0.0000 C   0  0
   -2.5981    1.5000    0.0000 C   0  0
    0.0000    1.5000    0.0000 C   0  0
    0.0000    3.0000    0.0000 C   0  0
    1.2990    3.7500    0.0000 N   0  0
    2.5981    3.0000    0.0000 C   0  0
    3.8994    3.7477    0.0000 N   0  0
    5.1981    2.9955    0.0000 C   0  0
    5.1929    1.4954    0.0000 C   0  0
    6.4894    0.7409    0.0000 C   0  0
    7.7910    1.4865    0.0000 C   0  0
    9.0881    0.7316    0.0000 N   0  0
    9.0854   -0.7685    0.0000 C   0  0
   10.3830   -1.5209    0.0000 C   0  0
   11.6835   -0.7733    0.0000 N   0  0
   12.9811   -1.5257    0.0000 C   0  0
   11.6863    0.7267    0.0000 C   0  0
   10.3886    1.4791    0.0000 C   0  0
    7.7962    2.9864    0.0000 C   0  0
    6.4997    3.7409    0.0000 C   0  0
    6.5081    5.2417    0.0000 O   0  0
    7.8108    5.9853    0.0000 C   0  0
    2.5981    1.5000    0.0000 N   0  0
    1.2990    0.7500    0.0000 C   0  0
    2.5965   -3.0004    0.0000 C   0  0
  1  2  2  0
  2  3  1  0
  3  4  2  0
  3  5  1  0
  5  6  1  0
  6  7  2  0
  7  8  1  0
  8  9  1  0
  8 10  2  0
 10 11  1  0
 11 12  1  0
 12 13  1  0
 13 14  2  0
 13 15  1  0
 15 16  2  0
 16 17  1  0
 16 18  1  0
 18 19  2  0
 19 20  1  0
 20 21  2  0
 21 22  1  0
 22 23  1  0
 23 24  2  0
 24 25  1  0
 25 26  2  0
 26 27  1  0
 27 28  1  0
 28 29  1  0
 29 30  1  0
 30 31  1  0
 30 32  1  0
 32 33  1  0
 33 27  1  0
 26 34  1  0
 34 35  2  0
 35 23  1  0
 35 36  1  0
 36 37  1  0
 21 38  1  0
 38 39  2  0
 39 18  1  0
 39 12  1  0
 11 40  2  0
 40  6  1  0
M  END
> <Name>
CHEMBL4095439

> <pChEMBL_Value>
8.74

$$$$
CHEMBL2029432
  SciTegic08122012322D

 38 42  0  0  0  0            999 V2000
    6.4757   -8.2656    0.0000 C   0  0
    5.1799   -7.5101    0.0000 C   0  0
    5.1854   -6.0093    0.0000 C   0  0
    6.4874   -5.2644    0.0000 O   0  0
    3.8888   -5.2533    0.0000 N   0  0
    3.8943   -3.7525    0.0000 C   0  0
    5.1945   -3.0045    0.0000 C   0  0
    5.1969   -1.5045    0.0000 C   0  0
    3.8991   -0.7525    0.0000 C   0  0
    2.5987   -1.5004    0.0000 C   0  0
    1.2990   -0.7500    0.0000 N   0  0
    0.0000   -1.5000    0.0000 C   0  0
    0.0000   -3.0000    0.0000 O   0  0
   -1.2990   -0.7500    0.0000 N   0  0
   -2.5981   -1.5000    0.0000 C   0  0
   -1.2990    0.7500    0.0000 C   0  0
    0.0000    1.5000    0.0000 C   0  0
    0.0000    3.0000    0.0000 C   0  0
    1.2990    3.7500    0.0000 N   0  0
    2.5981    3.0000    0.0000 C   0  0
    3.8994    3.7477    0.0000 N   0  0
    5.1981    2.9955    0.0000 C   0  0
    5.1929    1.4954    0.0000 C   0  0
    6.4894    0.7409    0.0000 C   0  0
    7.7910    1.4865    0.0000 C   0  0
    9.0881    0.7316    0.0000 N   0  0
    9.0854   -0.7685    0.0000 C   0  0
   10.3830   -1.5209    0.0000 C   0  0
   11.6835   -0.7733    0.0000 N   0  0
   12.9811   -1.5257    0.0000 C   0  0
   11.6863    0.7267    0.0000 C   0  0
   10.3886    1.4791    0.0000 C   0  0
    7.7962    2.9864    0.0000 C   0  0
    6.4997    3.7409    0.0000 C   0  0
    6.5050    5.2409    0.0000 C   0  0
    2.5981    1.5000    0.0000 N   0  0
    1.2990    0.7500    0.0000 C   0  0
    2.5965   -3.0004    0.0000 C   0  0
  1  2  2  0
  2  3  1  0
  3  4  2  0
  3  5  1  0
  5  6  1  0
  6  7  2  0
  7  8  1  0
  8  9  2  0
  9 10  1  0
 10 11  1  0
 11 12  1  0
 12 13  2  0
 12 14  1  0
 14 15  1  0
 14 16  1  0
 16 17  1  0
 17 18  2  0
 18 19  1  0
 19 20  2  0
 20 21  1  0
 21 22  1  0
 22 23  2  0
 23 24  1  0
 24 25  2  0
 25 26  1  0
 26 27  1  0
 27 28  1  0
 28 29  1  0
 29 30  1  0
 29 31  1  0
 31 32  1  0
 32 26  1  0
 25 33  1  0
 33 34  2  0
 34 22  1  0
 34 35  1  0
 20 36  1  0
 36 37  2  0
 37 17  1  0
 37 11  1  0
 10 38  2  0
 38  6  1  0
M  END
> <Name>
CHEMBL2029432

> <pChEMBL_Value>
8.71

$$$$
CHEMBL4293051
  SciTegic08122012322D

 42 46  0  0  0  0            999 V2000
    6.4757   -8.2656    0.0000 C   0  0
    5.1799   -7.5101    0.0000 C   0  0
    5.1854   -6.0093    0.0000 C   0  0
    6.4874   -5.2644    0.0000 O   0  0
    3.8888   -5.2533    0.0000 N   0  0
    3.8943   -3.7525    0.0000 C   0  0
    5.1945   -3.0045    0.0000 C   0  0
    5.1969   -1.5045    0.0000 C   0  0
    3.8991   -0.7525    0.0000 C   0  0
    2.5987   -1.5004    0.0000 C   0  0
    1.2990   -0.7500    0.0000 N   0  0
    0.0000   -1.5000    0.0000 C   0  0
    0.0000   -3.0000    0.0000 O   0  0
   -1.2990   -0.7500    0.0000 C   0  0
   -2.5981   -1.5000    0.0000 O   0  0
   -1.2990    0.7500    0.0000 N   0  0
   -2.6003    1.4977    0.0000 C   0  0
   -3.8983    0.7459    0.0000 C   0  0
   -2.6030    2.9977    0.0000 C   0  0
    0.0000    1.5000    0.0000 C   0  0
    0.0000    3.0000    0.0000 C   0  0
    1.2990    3.7500    0.0000 N   0  0
    2.5981    3.0000    0.0000 C   0  0
    3.8994    3.7477    0.0000 N   0  0
    5.1981    2.9955    0.0000 C   0  0
    5.1929    1.4954    0.0000 C   0  0
    6.4894    0.7409    0.0000 C   0  0
    7.7910    1.4865    0.0000 C   0  0
    9.0881    0.7316    0.0000 N   0  0
    9.0854   -0.7685    0.0000 C   0  0
   10.3830   -1.5209    0.0000 C   0  0
   11.6835   -0.7733    0.0000 N   0  0
   12.9811   -1.5257    0.0000 C   0  0
   11.6863    0.7267    0.0000 C   0  0
   10.3886    1.4791    0.0000 C   0  0
    7.7962    2.9864    0.0000 C   0  0
    6.4997    3.7409    0.0000 C   0  0
    6.5081    5.2417    0.0000 O   0  0
    7.8108    5.9853    0.0000 C   0  0
    2.5981    1.5000    0.0000 N   0  0
    1.2990    0.7500    0.0000 C   0  0
    2.5965   -3.0004    0.0000 C   0  0
  1  2  2  0
  2  3  1  0
  3  4  2  0
  3  5  1  0
  5  6  1  0
  6  7  2  0
  7  8  1  0
  8  9  2  0
  9 10  1  0
 10 11  1  0
 11 12  1  0
 12 13  2  0
 12 14  1  0
 14 15  2  0
 14 16  1  0
 16 17  1  0
 17 18  1  0
 17 19  1  0
 16 20  1  0
 20 21  2  0
 21 22  1  0
 22 23  2  0
 23 24  1  0
 24 25  1  0
 25 26  2  0
 26 27  1  0
 27 28  2  0
 28 29  1  0
 29 30  1  0
 30 31  1  0
 31 32  1  0
 32 33  1  0
 32 34  1  0
 34 35  1  0
 35 29  1  0
 28 36  1  0
 36 37  2  0
 37 25  1  0
 37 38  1  0
 38 39  1  0
 23 40  1  0
 40 41  2  0
 41 20  1  0
 41 11  1  0
 10 42  2  0
 42  6  1  0
M  END
> <Name>
CHEMBL4293051

> <pChEMBL_Value>
8.70

$$$$
CHEMBL4225191
  SciTegic08122012322D

 39 42  0  0  0  0            999 V2000
    6.4983   -0.7627    0.0000 C   0  0
    5.1972   -1.5092    0.0000 C   0  0
    3.8990   -0.7562    0.0000 C   0  0
    3.9026    0.7438    0.0000 O   0  0
    2.5973   -1.5031    0.0000 N   0  0
    1.2990   -0.7500    0.0000 C   0  0
    1.2990    0.7500    0.0000 C   0  0
    0.0000    1.5000    0.0000 C   0  0
   -1.2990    0.7500    0.0000 C   0  0
   -1.2990   -0.7500    0.0000 C   0  0
   -2.5972   -1.5031    0.0000 N   0  0
   -2.5951   -3.0039    0.0000 C   0  0
   -1.2948   -3.7517    0.0000 O   0  0
   -3.8933   -3.7570    0.0000 N   0  0
   -3.8912   -5.2578    0.0000 C   0  0
   -5.1876   -6.0124    0.0000 C   0  0
   -5.1824   -7.5124    0.0000 C   0  0
   -3.8808   -8.2579    0.0000 N   0  0
   -2.5843   -7.5034    0.0000 C   0  0
   -1.2804   -8.2467    0.0000 N   0  0
    0.0156   -7.4899    0.0000 C   0  0
    0.0053   -5.9899    0.0000 C   0  0
    1.2991   -5.2309    0.0000 C   0  0
    2.6033   -5.9719    0.0000 C   0  0
    3.8978   -5.2125    0.0000 N   0  0
    3.8899   -3.7125    0.0000 C   0  0
    5.1849   -2.9556    0.0000 C   0  0
    6.4879   -3.6987    0.0000 C   0  0
    7.7852   -2.9440    0.0000 N   0  0
    9.0872   -3.6889    0.0000 C   0  0
    7.7799   -1.4440    0.0000 C   0  0
    6.4959   -5.1986    0.0000 C   0  0
    5.2009   -5.9556    0.0000 C   0  0
    2.6137   -7.4719    0.0000 C   0  0
    1.3199   -8.2308    0.0000 C   0  0
    1.3334   -9.7316    0.0000 O   0  0
    2.6387  -10.4707    0.0000 C   0  0
   -2.5895   -6.0034    0.0000 N   0  0
    0.0000   -1.5000    0.0000 C   0  0
  1  2  2  0
  2  3  1  0
  3  4  2  0
  3  5  1  0
  5  6  1  0
  6  7  2  0
  7  8  1  0
  8  9  2  0
  9 10  1  0
 10 11  1  0
 11 12  1  0
 12 13  2  0
 12 14  1  0
 14 15  1  0
 15 16  2  0
 16 17  1  0
 17 18  2  0
 18 19  1  0
 19 20  1  0
 20 21  1  0
 21 22  2  0
 22 23  1  0
 23 24  2  0
 24 25  1  0
 25 26  1  0
 26 27  1  0
 27 28  1  0
 28 29  1  0
 29 30  1  0
 29 31  1  0
 28 32  1  0
 32 33  1  0
 33 25  1  0
 24 34  1  0
 34 35  2  0
 35 21  1  0
 35 36  1  0
 36 37  1  0
 19 38  2  0
 38 15  1  0
 10 39  2  0
 39  6  1  0
M  END
> <Name>
CHEMBL4225191

> <pChEMBL_Value>
8.70

$$$$
CHEMBL4068047
  SciTegic08122012322D

 43 47  0  0  0  0            999 V2000
   10.3961   -1.5214    0.0000 C   0  0
    9.0994   -0.7675    0.0000 C   0  0
    7.7969   -1.5132    0.0000 C   0  0
    7.7919   -3.0132    0.0000 O   0  0
    6.4994   -0.7589    0.0000 N   0  0
    5.1969   -1.5045    0.0000 C   0  0
    3.8991   -0.7525    0.0000 C   0  0
    2.5987   -1.5004    0.0000 C   0  0
    1.2990   -0.7500    0.0000 N   0  0
    1.2990    0.7500    0.0000 C   0  0
    2.5981    1.5000    0.0000 O   0  0
    0.0000    1.5000    0.0000 C   0  0
   -1.2990    0.7500    0.0000 C   0  0
   -2.5981    1.5000    0.0000 C   0  0
   -1.2990   -0.7500    0.0000 C   0  0
   -2.5981   -1.5000    0.0000 C   0  0
   -2.5981   -3.0000    0.0000 N   0  0
   -1.2990   -3.7500    0.0000 C   0  0
   -1.2959   -5.2508    0.0000 N   0  0
   -2.5937   -6.0048    0.0000 C   0  0
   -3.8933   -5.2556    0.0000 C   0  0
   -5.1918   -6.0065    0.0000 C   0  0
   -5.1908   -7.5065    0.0000 C   0  0
   -6.4900   -8.2577    0.0000 N   0  0
   -7.7908   -7.5107    0.0000 C   0  0
   -9.0882   -8.2636    0.0000 C   0  0
   -9.0848   -9.7636    0.0000 N   0  0
  -10.3822  -10.5166    0.0000 C   0  0
   -7.7841  -10.5107    0.0000 C   0  0
   -6.4867   -9.7578    0.0000 C   0  0
   -3.8913   -8.2556    0.0000 C   0  0
   -2.5928   -7.5048    0.0000 C   0  0
   -1.2941   -8.2571    0.0000 O   0  0
   -1.2953   -9.7571    0.0000 C   0  0
    0.0000   -3.0000    0.0000 N   0  0
    0.0000   -1.5000    0.0000 C   0  0
    2.5965   -3.0004    0.0000 C   0  0
    3.8943   -3.7525    0.0000 C   0  0
    3.8919   -5.2533    0.0000 C   0  0
    2.5922   -6.0021    0.0000 F   0  0
    5.1900   -6.0050    0.0000 F   0  0
    3.8903   -6.7533    0.0000 F   0  0
    5.1945   -3.0045    0.0000 C   0  0
  1  2  2  0
  2  3  1  0
  3  4  2  0
  3  5  1  0
  5  6  1  0
  6  7  2  0
  7  8  1  0
  8  9  1  0
  9 10  1  0
 10 11  2  0
 10 12  1  0
 12 13  2  0
 13 14  1  0
 13 15  1  0
 15 16  2  0
 16 17  1  0
 17 18  2  0
 18 19  1  0
 19 20  1  0
 20 21  2  0
 21 22  1  0
 22 23  2  0
 23 24  1  0
 24 25  1  0
 25 26  1  0
 26 27  1  0
 27 28  1  0
 27 29  1  0
 29 30  1  0
 30 24  1  0
 23 31  1  0
 31 32  2  0
 32 20  1  0
 32 33  1  0
 33 34  1  0
 18 35  1  0
 35 36  2  0
 36 15  1  0
 36  9  1  0
  8 37  2  0
 37 38  1  0
 38 39  1  0
 39 40  1  0
 39 41  1  0
 39 42  1  0
 38 43  2  0
 43  6  1  0
M  END
> <Name>
CHEMBL4068047

> <pChEMBL_Value>
8.70

$$$$
CHEMBL3604943
  SciTegic08122012322D

 37 41  0  0  0  0            999 V2000
   -2.8827  -11.5495    0.0000 C   0  0
   -4.3226  -11.1290    0.0000 C   0  0
   -4.6795   -9.6712    0.0000 C   0  0
   -3.5958   -8.6342    0.0000 O   0  0
   -6.1202   -9.2506    0.0000 N   0  0
   -6.4771   -7.7928    0.0000 C   0  0
   -5.3916   -6.7576    0.0000 C   0  0
   -5.7452   -5.2998    0.0000 C   0  0
   -4.6570   -4.2663    0.0000 N   0  0
   -3.2175   -4.6910    0.0000 C   0  0
   -2.8628   -6.1485    0.0000 N   0  0
   -1.4233   -6.5700    0.0000 C   0  0
   -0.3384   -5.5341    0.0000 C   0  0
   -0.6928   -4.0817    0.0000 C   0  0
    0.3114   -2.9665    0.0000 C   0  0
    1.8032   -3.1233    0.0000 C   0  0
    2.4133   -1.7530    0.0000 N   0  0
    3.8805   -1.4410    0.0000 C   0  0
    1.2990   -0.7500    0.0000 C   0  0
    1.2990    0.7500    0.0000 C   0  0
    0.0000    1.5000    0.0000 C   0  0
   -1.2990    0.7500    0.0000 C   0  0
   -1.2990   -0.7500    0.0000 C   0  0
    0.0000   -1.5000    0.0000 C   0  0
   -2.1327   -3.6551    0.0000 N   0  0
   -7.1846   -4.8774    0.0000 C   0  0
   -7.5416   -3.4196    0.0000 O   0  0
   -8.9814   -2.9992    0.0000 C   0  0
   -8.2701   -5.9126    0.0000 C   0  0
   -7.9164   -7.3703    0.0000 C   0  0
   -9.0024   -8.4060    0.0000 N   0  0
  -10.4425   -7.9859    0.0000 C   0  0
  -11.5263   -9.0228    0.0000 C   0  0
  -11.1703  -10.4799    0.0000 N   0  0
  -12.2542  -11.5168    0.0000 C   0  0
   -9.7303  -10.9001    0.0000 C   0  0
   -8.6465   -9.8632    0.0000 C   0  0
  1  2  2  0
  2  3  1  0
  3  4  2  0
  3  5  1  0
  5  6  1  0
  6  7  2  0
  7  8  1  0
  8  9  1  0
  9 10  1  0
 10 11  2  0
 11 12  1  0
 12 13  2  0
 13 14  1  0
 14 15  1  0
 15 16  2  0
 16 17  1  0
 17 18  1  0
 17 19  1  0
 19 20  2  0
 20 21  1  0
 21 22  2  0
 22 23  1  0
 23 24  2  0
 24 15  1  0
 24 19  1  0
 14 25  2  0
 25 10  1  0
  8 26  2  0
 26 27  1  0
 27 28  1  0
 26 29  1  0
 29 30  2  0
 30  6  1  0
 30 31  1  0
 31 32  1  0
 32 33  1  0
 33 34  1  0
 34 35  1  0
 34 36  1  0
 36 37  1  0
 37 31  1  0
M  END
> <Name>
CHEMBL3604943

> <pChEMBL_Value>
8.70

$$$$
CHEMBL4228176
  SciTegic08122012322D

 41 44  0  0  0  0            999 V2000
    6.4983   -0.7627    0.0000 C   0  0
    5.1972   -1.5092    0.0000 C   0  0
    3.8990   -0.7562    0.0000 C   0  0
    3.9026    0.7438    0.0000 O   0  0
    2.5973   -1.5031    0.0000 N   0  0
    1.2990   -0.7500    0.0000 C   0  0
    1.2990    0.7500    0.0000 C   0  0
    0.0000    1.5000    0.0000 C   0  0
   -1.2990    0.7500    0.0000 C   0  0
   -1.2990   -0.7500    0.0000 C   0  0
   -2.5972   -1.5031    0.0000 N   0  0
   -2.5951   -3.0039    0.0000 C   0  0
   -1.2948   -3.7517    0.0000 O   0  0
   -3.8933   -3.7570    0.0000 N   0  0
   -3.8912   -5.2578    0.0000 C   0  0
   -5.1876   -6.0124    0.0000 C   0  0
   -5.1824   -7.5124    0.0000 C   0  0
   -3.8808   -8.2579    0.0000 N   0  0
   -2.5843   -7.5034    0.0000 C   0  0
   -1.2804   -8.2467    0.0000 N   0  0
    0.0156   -7.4899    0.0000 C   0  0
    0.0053   -5.9899    0.0000 C   0  0
    1.2991   -5.2309    0.0000 C   0  0
    2.6033   -5.9719    0.0000 C   0  0
    3.8978   -5.2125    0.0000 N   0  0
    3.8899   -3.7125    0.0000 C   0  0
    5.1849   -2.9556    0.0000 C   0  0
    6.4879   -3.6987    0.0000 C   0  0
    7.7852   -2.9440    0.0000 N   0  0
    9.0879   -3.6893    0.0000 C   0  0
   10.3845   -2.9351    0.0000 C   0  0
    7.7830   -1.4432    0.0000 C   0  0
    9.0804   -0.6904    0.0000 C   0  0
    6.4959   -5.1986    0.0000 C   0  0
    5.2009   -5.9556    0.0000 C   0  0
    2.6137   -7.4719    0.0000 C   0  0
    1.3199   -8.2308    0.0000 C   0  0
    1.3334   -9.7316    0.0000 O   0  0
    2.6387  -10.4707    0.0000 C   0  0
   -2.5895   -6.0034    0.0000 N   0  0
    0.0000   -1.5000    0.0000 C   0  0
  1  2  2  0
  2  3  1  0
  3  4  2  0
  3  5  1  0
  5  6  1  0
  6  7  2  0
  7  8  1  0
  8  9  2  0
  9 10  1  0
 10 11  1  0
 11 12  1  0
 12 13  2  0
 12 14  1  0
 14 15  1  0
 15 16  2  0
 16 17  1  0
 17 18  2  0
 18 19  1  0
 19 20  1  0
 20 21  1  0
 21 22  2  0
 22 23  1  0
 23 24  2  0
 24 25  1  0
 25 26  1  0
 26 27  1  0
 27 28  1  0
 28 29  1  0
 29 30  1  0
 30 31  1  0
 29 32  1  0
 32 33  1  0
 28 34  1  0
 34 35  1  0
 35 25  1  0
 24 36  1  0
 36 37  2  0
 37 21  1  0
 37 38  1  0
 38 39  1  0
 19 40  2  0
 40 15  1  0
 10 41  2  0
 41  6  1  0
M  END
> <Name>
CHEMBL4228176

> <pChEMBL_Value>
8.70

$$$$
CHEMBL4083486
  SciTegic08122012322D

 40 44  0  0  0  0            999 V2000
    7.7962    2.9983    0.0000 C   0  0
    7.7960    1.4983    0.0000 C   0  0
    6.4966    0.7473    0.0000 C   0  0
    5.1974    1.4971    0.0000 O   0  0
    6.4963   -0.7535    0.0000 N   0  0
    5.1969   -1.5045    0.0000 C   0  0
    3.8991   -0.7525    0.0000 C   0  0
    2.5987   -1.5004    0.0000 C   0  0
    1.2990   -0.7500    0.0000 N   0  0
    1.2990    0.7500    0.0000 C   0  0
    2.5981    1.5000    0.0000 O   0  0
    0.0000    1.5000    0.0000 C   0  0
   -1.2990    0.7500    0.0000 C   0  0
   -2.5981    1.5000    0.0000 C   0  0
   -1.2990   -0.7500    0.0000 C   0  0
   -2.5981   -1.5000    0.0000 C   0  0
   -2.5981   -3.0000    0.0000 N   0  0
   -1.2990   -3.7500    0.0000 C   0  0
   -1.2959   -5.2508    0.0000 N   0  0
    0.0049   -5.9994    0.0000 C   0  0
    1.3014   -5.2449    0.0000 C   0  0
    2.6030   -5.9904    0.0000 C   0  0
    2.6082   -7.4904    0.0000 C   0  0
    3.9105   -8.2363    0.0000 N   0  0
    5.2082   -7.4839    0.0000 C   0  0
    6.5087   -8.2315    0.0000 C   0  0
    6.5115   -9.7315    0.0000 N   0  0
    7.8119  -10.4791    0.0000 C   0  0
    5.2139  -10.4839    0.0000 C   0  0
    3.9134   -9.7363    0.0000 C   0  0
    1.3118   -8.2449    0.0000 C   0  0
    0.0102   -7.4994    0.0000 C   0  0
   -1.2854   -8.2570    0.0000 O   0  0
   -1.2780   -9.7570    0.0000 C   0  0
    0.0000   -3.0000    0.0000 N   0  0
    0.0000   -1.5000    0.0000 C   0  0
    2.5965   -3.0004    0.0000 C   0  0
    3.8943   -3.7525    0.0000 C   0  0
    5.1945   -3.0045    0.0000 C   0  0
    6.4924   -3.7566    0.0000 C   0  0
  1  2  2  0
  2  3  1  0
  3  4  2  0
  3  5  1  0
  5  6  1  0
  6  7  2  0
  7  8  1  0
  8  9  1  0
  9 10  1  0
 10 11  2  0
 10 12  1  0
 12 13  2  0
 13 14  1  0
 13 15  1  0
 15 16  2  0
 16 17  1  0
 17 18  2  0
 18 19  1  0
 19 20  1  0
 20 21  2  0
 21 22  1  0
 22 23  2  0
 23 24  1  0
 24 25  1  0
 25 26  1  0
 26 27  1  0
 27 28  1  0
 27 29  1  0
 29 30  1  0
 30 24  1  0
 23 31  1  0
 31 32  2  0
 32 20  1  0
 32 33  1  0
 33 34  1  0
 18 35  1  0
 35 36  2  0
 36 15  1  0
 36  9  1  0
  8 37  2  0
 37 38  1  0
 38 39  2  0
 39  6  1  0
 39 40  1  0
M  END
> <Name>
CHEMBL4083486

> <pChEMBL_Value>
8.64

$$$$
CHEMBL4079861
  SciTegic08122012322D

 42 46  0  0  0  0            999 V2000
    6.4757   -8.2656    0.0000 C   0  0
    5.1799   -7.5101    0.0000 C   0  0
    5.1854   -6.0093    0.0000 C   0  0
    6.4874   -5.2644    0.0000 O   0  0
    3.8888   -5.2533    0.0000 N   0  0
    3.8943   -3.7525    0.0000 C   0  0
    5.1945   -3.0045    0.0000 C   0  0
    5.1969   -1.5045    0.0000 C   0  0
    6.4963   -0.7535    0.0000 C   0  0
    6.4965    0.7465    0.0000 C   0  0
    7.7955   -1.5033    0.0000 C   0  0
    3.8991   -0.7525    0.0000 C   0  0
    2.5987   -1.5004    0.0000 C   0  0
    1.2990   -0.7500    0.0000 N   0  0
    0.0000   -1.5000    0.0000 C   0  0
    0.0000   -3.0000    0.0000 O   0  0
   -1.2990   -0.7500    0.0000 C   0  0
   -1.2990    0.7500    0.0000 C   0  0
   -2.5981    1.5000    0.0000 C   0  0
    0.0000    1.5000    0.0000 C   0  0
    0.0000    3.0000    0.0000 C   0  0
    1.2990    3.7500    0.0000 N   0  0
    2.5981    3.0000    0.0000 C   0  0
    3.8994    3.7477    0.0000 N   0  0
    3.9034    5.2486    0.0000 C   0  0
    2.6048    5.9995    0.0000 C   0  0
    2.6058    7.4995    0.0000 C   0  0
    3.9054    8.2487    0.0000 C   0  0
    3.9063    9.7494    0.0000 N   0  0
    2.6090   10.5024    0.0000 C   0  0
    2.6124   12.0024    0.0000 C   0  0
    3.9131   12.7495    0.0000 N   0  0
    3.9164   14.2495    0.0000 C   0  0
    5.2104   11.9966    0.0000 C   0  0
    5.2071   10.4966    0.0000 C   0  0
    5.2039    7.4978    0.0000 C   0  0
    5.2029    5.9978    0.0000 C   0  0
    6.5038    5.2493    0.0000 O   0  0
    7.8022    6.0003    0.0000 C   0  0
    2.5981    1.5000    0.0000 N   0  0
    1.2990    0.7500    0.0000 C   0  0
    2.5965   -3.0004    0.0000 C   0  0
  1  2  2  0
  2  3  1  0
  3  4  2  0
  3  5  1  0
  5  6  1  0
  6  7  2  0
  7  8  1  0
  8  9  1  0
  9 10  1  0
  9 11  1  0
  8 12  2  0
 12 13  1  0
 13 14  1  0
 14 15  1  0
 15 16  2  0
 15 17  1  0
 17 18  2  0
 18 19  1  0
 18 20  1  0
 20 21  2  0
 21 22  1  0
 22 23  2  0
 23 24  1  0
 24 25  1  0
 25 26  2  0
 26 27  1  0
 27 28  2  0
 28 29  1  0
 29 30  1  0
 30 31  1  0
 31 32  1  0
 32 33  1  0
 32 34  1  0
 34 35  1  0
 35 29  1  0
 28 36  1  0
 36 37  2  0
 37 25  1  0
 37 38  1  0
 38 39  1  0
 23 40  1  0
 40 41  2  0
 41 20  1  0
 41 14  1  0
 13 42  2  0
 42  6  1  0
M  END
> <Name>
CHEMBL4079861

> <pChEMBL_Value>
8.62

$$$$
CHEMBL3219127
  SciTegic08122012322D

 44 49  0  0  0  0            999 V2000
    9.1232   -5.7304    0.0000 C   0  0
    7.6464   -5.4679    0.0000 C   0  0
    7.1341   -4.0572    0.0000 C   0  0
    8.0995   -2.9091    0.0000 O   0  0
    5.6565   -3.7945    0.0000 N   0  0
    5.1442   -2.3838    0.0000 C   0  0
    6.1069   -1.2335    0.0000 C   0  0
    5.5920    0.1754    0.0000 C   0  0
    4.1145    0.4339    0.0000 C   0  0
    3.1484   -0.7186    0.0000 C   0  0
    1.6852   -0.3846    0.0000 N   0  0
    0.7500   -1.5574    0.0000 C   0  0
    1.4008   -2.9088    0.0000 O   0  0
   -0.7500   -1.5574    0.0000 C   0  0
   -1.2990   -2.9545    0.0000 C   0  0
   -2.7822   -3.1781    0.0000 C   0  0
   -3.7175   -2.0053    0.0000 C   0  0
   -3.1695   -0.6090    0.0000 C   0  0
   -1.6852   -0.3847    0.0000 N   0  0
   -1.3515    1.0777    0.0000 C   0  0
   -2.5242    2.0130    0.0000 O   0  0
    0.0000    1.7286    0.0000 C   0  0
   -0.1116    3.2255    0.0000 C   0  0
    1.1278    4.0705    0.0000 N   0  0
    2.4793    3.4197    0.0000 C   0  0
    3.7210    4.2626    0.0000 N   0  0
    5.0723    3.6095    0.0000 C   0  0
    5.1793    2.1132    0.0000 C   0  0
    6.5285    1.4577    0.0000 C   0  0
    7.7708    2.2984    0.0000 C   0  0
    9.1206    1.6426    0.0000 N   0  0
    9.2301    0.1465    0.0000 C   0  0
   10.5803   -0.5068    0.0000 C   0  0
   11.8212    0.3359    0.0000 N   0  0
   13.1715   -0.3175    0.0000 C   0  0
   11.7119    1.8319    0.0000 C   0  0
   10.3617    2.4852    0.0000 C   0  0
    7.6638    3.7946    0.0000 C   0  0
    6.3146    4.4501    0.0000 C   0  0
    6.2108    5.9473    0.0000 O   0  0
    7.4543    6.7862    0.0000 C   0  0
    2.5913    1.9239    0.0000 N   0  0
    1.3514    1.0777    0.0000 C   0  0
    3.6667   -2.1252    0.0000 C   0  0
  1  2  2  0
  2  3  1  0
  3  4  2  0
  3  5  1  0
  5  6  1  0
  6  7  2  0
  7  8  1  0
  8  9  2  0
  9 10  1  0
 10 11  1  0
 11 12  1  0
 12 13  2  0
 12 14  1  0
 14 15  1  0
 15 16  1  0
 16 17  1  0
 17 18  1  0
 18 19  1  0
 19 14  1  0
 19 20  1  0
 20 21  2  0
 20 22  1  0
 22 23  2  0
 23 24  1  0
 24 25  2  0
 25 26  1  0
 26 27  1  0
 27 28  2  0
 28 29  1  0
 29 30  2  0
 30 31  1  0
 31 32  1  0
 32 33  1  0
 33 34  1  0
 34 35  1  0
 34 36  1  0
 36 37  1  0
 37 31  1  0
 30 38  1  0
 38 39  2  0
 39 27  1  0
 39 40  1  0
 40 41  1  0
 25 42  1  0
 42 43  2  0
 43 22  1  0
 43 11  1  0
 10 44  2  0
 44  6  1  0
M  END
> <Name>
CHEMBL3219127

> <pChEMBL_Value>
8.61

$$$$
CHEMBL3753235
  SciTegic08122012322D

 44 49  0  0  0  0            999 V2000
    6.4757   -8.2656    0.0000 C   0  0
    5.1799   -7.5101    0.0000 C   0  0
    5.1854   -6.0093    0.0000 C   0  0
    6.4874   -5.2644    0.0000 O   0  0
    3.8888   -5.2533    0.0000 N   0  0
    3.8943   -3.7525    0.0000 C   0  0
    5.1945   -3.0045    0.0000 C   0  0
    5.1969   -1.5045    0.0000 C   0  0
    3.8991   -0.7525    0.0000 C   0  0
    2.5987   -1.5004    0.0000 C   0  0
    1.2990   -0.7500    0.0000 N   0  0
    0.0000   -1.5000    0.0000 C   0  0
    0.0000   -3.0000    0.0000 O   0  0
   -1.2990   -0.7500    0.0000 C   0  0
   -2.5987   -1.5004    0.0000 C   0  0
   -2.6012   -3.0004    0.0000 C   0  0
   -3.9014   -3.7484    0.0000 C   0  0
   -5.1993   -2.9963    0.0000 C   0  0
   -5.1969   -1.4963    0.0000 C   0  0
   -3.8967   -0.7484    0.0000 C   0  0
   -1.2990    0.7500    0.0000 C   0  0
    0.0000    1.5000    0.0000 C   0  0
    0.0000    3.0000    0.0000 C   0  0
    1.2990    3.7500    0.0000 N   0  0
    2.5981    3.0000    0.0000 C   0  0
    3.8994    3.7477    0.0000 N   0  0
    5.1981    2.9955    0.0000 C   0  0
    5.1929    1.4954    0.0000 C   0  0
    6.4894    0.7409    0.0000 C   0  0
    7.7910    1.4865    0.0000 C   0  0
    9.0881    0.7316    0.0000 N   0  0
    9.0854   -0.7685    0.0000 C   0  0
   10.3830   -1.5209    0.0000 C   0  0
   11.6835   -0.7733    0.0000 N   0  0
   12.9811   -1.5257    0.0000 C   0  0
   11.6863    0.7267    0.0000 C   0  0
   10.3886    1.4791    0.0000 C   0  0
    7.7962    2.9864    0.0000 C   0  0
    6.4997    3.7409    0.0000 C   0  0
    6.5081    5.2417    0.0000 O   0  0
    7.8108    5.9853    0.0000 C   0  0
    2.5981    1.5000    0.0000 N   0  0
    1.2990    0.7500    0.0000 C   0  0
    2.5965   -3.0004    0.0000 C   0  0
  1  2  2  0
  2  3  1  0
  3  4  2  0
  3  5  1  0
  5  6  1  0
  6  7  2  0
  7  8  1  0
  8  9  2  0
  9 10  1  0
 10 11  1  0
 11 12  1  0
 12 13  2  0
 12 14  1  0
 14 15  1  0
 15 16  2  0
 16 17  1  0
 17 18  2  0
 18 19  1  0
 19 20  2  0
 20 15  1  0
 14 21  2  0
 21 22  1  0
 22 23  2  0
 23 24  1  0
 24 25  2  0
 25 26  1  0
 26 27  1  0
 27 28  2  0
 28 29  1  0
 29 30  2  0
 30 31  1  0
 31 32  1  0
 32 33  1  0
 33 34  1  0
 34 35  1  0
 34 36  1  0
 36 37  1  0
 37 31  1  0
 30 38  1  0
 38 39  2  0
 39 27  1  0
 39 40  1  0
 40 41  1  0
 25 42  1  0
 42 43  2  0
 43 22  1  0
 43 11  1  0
 10 44  2  0
 44  6  1  0
M  END
> <Name>
CHEMBL3753235

> <pChEMBL_Value>
8.60

$$$$
CHEMBL4289490
  SciTegic08122012322D

 39 42  0  0  0  0            999 V2000
   -1.4420  -11.9701    0.0000 C   0  0
   -2.8819  -11.5497    0.0000 C   0  0
   -4.3226  -11.1290    0.0000 C   0  0
   -4.6795   -9.6712    0.0000 C   0  0
   -3.5958   -8.6342    0.0000 O   0  0
   -6.1202   -9.2506    0.0000 N   0  0
   -6.4771   -7.7928    0.0000 C   0  0
   -5.3916   -6.7576    0.0000 C   0  0
   -5.7452   -5.2998    0.0000 C   0  0
   -4.6570   -4.2663    0.0000 N   0  0
   -3.2175   -4.6910    0.0000 C   0  0
   -2.8628   -6.1485    0.0000 N   0  0
   -1.4233   -6.5700    0.0000 C   0  0
   -0.3384   -5.5341    0.0000 C   0  0
   -0.6928   -4.0817    0.0000 C   0  0
    0.3114   -2.9665    0.0000 C   0  0
    1.8032   -3.1233    0.0000 C   0  0
    2.4133   -1.7530    0.0000 N   0  0
    3.8805   -1.4410    0.0000 C   0  0
    1.2990   -0.7500    0.0000 C   0  0
    1.2990    0.7500    0.0000 C   0  0
    0.0000    1.5000    0.0000 C   0  0
    0.0000    3.0000    0.0000 Cl  0  0
   -1.2990    0.7500    0.0000 C   0  0
   -1.2990   -0.7500    0.0000 C   0  0
    0.0000   -1.5000    0.0000 C   0  0
   -2.1327   -3.6551    0.0000 N   0  0
   -7.1846   -4.8774    0.0000 C   0  0
   -7.5416   -3.4196    0.0000 O   0  0
   -8.9814   -2.9992    0.0000 C   0  0
   -8.2701   -5.9126    0.0000 C   0  0
   -7.9164   -7.3703    0.0000 C   0  0
   -9.0046   -8.4038    0.0000 N   0  0
   -8.6534   -9.8621    0.0000 C   0  0
  -10.4441   -7.9790    0.0000 C   0  0
  -11.5323   -9.0126    0.0000 C   0  0
  -12.9718   -8.5878    0.0000 N   0  0
  -14.0594   -9.6207    0.0000 C   0  0
  -13.3230   -7.1295    0.0000 C   0  0
  1  2  2  0
  2  3  2  0
  3  4  1  0
  4  5  2  0
  4  6  1  0
  6  7  1  0
  7  8  2  0
  8  9  1  0
  9 10  1  0
 10 11  1  0
 11 12  2  0
 12 13  1  0
 13 14  2  0
 14 15  1  0
 15 16  1  0
 16 17  2  0
 17 18  1  0
 18 19  1  0
 18 20  1  0
 20 21  2  0
 21 22  1  0
 22 23  1  0
 22 24  2  0
 24 25  1  0
 25 26  2  0
 26 16  1  0
 26 20  1  0
 15 27  2  0
 27 11  1  0
  9 28  2  0
 28 29  1  0
 29 30  1  0
 28 31  1  0
 31 32  2  0
 32  7  1  0
 32 33  1  0
 33 34  1  0
 33 35  1  0
 35 36  1  0
 36 37  1  0
 37 38  1  0
 37 39  1  0
M  END
> <Name>
CHEMBL4289490

> <pChEMBL_Value>
8.59

$$$$
CHEMBL4072048
  SciTegic08122012322D

 41 45  0  0  0  0            999 V2000
    6.4757   -8.2656    0.0000 C   0  0
    5.1799   -7.5101    0.0000 C   0  0
    5.1854   -6.0093    0.0000 C   0  0
    6.4874   -5.2644    0.0000 O   0  0
    3.8888   -5.2533    0.0000 N   0  0
    3.8943   -3.7525    0.0000 C   0  0
    5.1945   -3.0045    0.0000 C   0  0
    5.1969   -1.5045    0.0000 C   0  0
    3.8991   -0.7525    0.0000 C   0  0
    2.5987   -1.5004    0.0000 C   0  0
    1.2990   -0.7500    0.0000 N   0  0
    0.0000   -1.5000    0.0000 C   0  0
    0.0000   -3.0000    0.0000 O   0  0
   -1.2990   -0.7500    0.0000 C   0  0
   -1.2990    0.7500    0.0000 C   0  0
   -2.5981    1.5000    0.0000 C   0  0
    0.0000    1.5000    0.0000 C   0  0
    0.0000    3.0000    0.0000 C   0  0
    1.2990    3.7500    0.0000 N   0  0
    2.5981    3.0000    0.0000 C   0  0
    3.8994    3.7477    0.0000 N   0  0
    5.1981    2.9955    0.0000 C   0  0
    5.1929    1.4954    0.0000 C   0  0
    6.4894    0.7409    0.0000 C   0  0
    7.7910    1.4865    0.0000 C   0  0
    9.0881    0.7316    0.0000 N   0  0
    9.0854   -0.7685    0.0000 C   0  0
   10.3830   -1.5209    0.0000 C   0  0
   10.3802   -3.0209    0.0000 C   0  0
   11.6835   -0.7733    0.0000 N   0  0
   12.9811   -1.5257    0.0000 C   0  0
   11.6863    0.7267    0.0000 C   0  0
   12.9867    1.4743    0.0000 C   0  0
   10.3886    1.4791    0.0000 C   0  0
    7.7962    2.9864    0.0000 C   0  0
    6.4997    3.7409    0.0000 C   0  0
    6.5081    5.2417    0.0000 O   0  0
    7.8108    5.9853    0.0000 C   0  0
    2.5981    1.5000    0.0000 N   0  0
    1.2990    0.7500    0.0000 C   0  0
    2.5965   -3.0004    0.0000 C   0  0
  1  2  2  0
  2  3  1  0
  3  4  2  0
  3  5  1  0
  5  6  1  0
  6  7  2  0
  7  8  1  0
  8  9  2  0
  9 10  1  0
 10 11  1  0
 11 12  1  0
 12 13  2  0
 12 14  1  0
 14 15  2  0
 15 16  1  0
 15 17  1  0
 17 18  2  0
 18 19  1  0
 19 20  2  0
 20 21  1  0
 21 22  1  0
 22 23  2  0
 23 24  1  0
 24 25  2  0
 25 26  1  0
 26 27  1  0
 27 28  1  0
 28 29  1  0
 28 30  1  0
 30 31  1  0
 30 32  1  0
 32 33  1  0
 32 34  1  0
 34 26  1  0
 25 35  1  0
 35 36  2  0
 36 22  1  0
 36 37  1  0
 37 38  1  0
 20 39  1  0
 39 40  2  0
 40 17  1  0
 40 11  1  0
 10 41  2  0
 41  6  1  0
M  END
> <Name>
CHEMBL4072048

> <pChEMBL_Value>
8.48

$$$$
CHEMBL4078914
  SciTegic08122012322D

 45 49  0  0  0  0            999 V2000
   10.3961   -1.5214    0.0000 C   0  0
    9.0994   -0.7675    0.0000 C   0  0
    7.7969   -1.5132    0.0000 C   0  0
    7.7919   -3.0132    0.0000 O   0  0
    6.4994   -0.7589    0.0000 N   0  0
    5.1969   -1.5045    0.0000 C   0  0
    3.8991   -0.7525    0.0000 C   0  0
    2.5987   -1.5004    0.0000 C   0  0
    1.2990   -0.7500    0.0000 N   0  0
    1.2990    0.7500    0.0000 C   0  0
    2.5981    1.5000    0.0000 O   0  0
    0.0000    1.5000    0.0000 C   0  0
   -1.2990    0.7500    0.0000 C   0  0
   -2.5981    1.5000    0.0000 C   0  0
   -1.2990   -0.7500    0.0000 C   0  0
   -2.5981   -1.5000    0.0000 C   0  0
   -2.5981   -3.0000    0.0000 N   0  0
   -1.2990   -3.7500    0.0000 C   0  0
   -1.2959   -5.2508    0.0000 N   0  0
   -2.5937   -6.0048    0.0000 C   0  0
   -3.8933   -5.2556    0.0000 C   0  0
   -5.1918   -6.0065    0.0000 C   0  0
   -5.1908   -7.5065    0.0000 C   0  0
   -6.4900   -8.2577    0.0000 N   0  0
   -7.7908   -7.5107    0.0000 C   0  0
   -9.0882   -8.2636    0.0000 C   0  0
  -10.3889   -7.5166    0.0000 C   0  0
   -9.0848   -9.7636    0.0000 N   0  0
  -10.3822  -10.5166    0.0000 C   0  0
   -7.7841  -10.5107    0.0000 C   0  0
   -7.7807  -12.0107    0.0000 C   0  0
   -6.4867   -9.7578    0.0000 C   0  0
   -3.8913   -8.2556    0.0000 C   0  0
   -2.5928   -7.5048    0.0000 C   0  0
   -1.2941   -8.2571    0.0000 O   0  0
   -1.2953   -9.7571    0.0000 C   0  0
    0.0000   -3.0000    0.0000 N   0  0
    0.0000   -1.5000    0.0000 C   0  0
    2.5965   -3.0004    0.0000 C   0  0
    3.8943   -3.7525    0.0000 C   0  0
    3.8919   -5.2533    0.0000 C   0  0
    2.5922   -6.0021    0.0000 F   0  0
    5.1900   -6.0050    0.0000 F   0  0
    3.8903   -6.7533    0.0000 F   0  0
    5.1945   -3.0045    0.0000 C   0  0
  1  2  2  0
  2  3  1  0
  3  4  2  0
  3  5  1  0
  5  6  1  0
  6  7  2  0
  7  8  1  0
  8  9  1  0
  9 10  1  0
 10 11  2  0
 10 12  1  0
 12 13  2  0
 13 14  1  0
 13 15  1  0
 15 16  2  0
 16 17  1  0
 17 18  2  0
 18 19  1  0
 19 20  1  0
 20 21  2  0
 21 22  1  0
 22 23  2  0
 23 24  1  0
 24 25  1  0
 25 26  1  0
 26 27  1  0
 26 28  1  0
 28 29  1  0
 28 30  1  0
 30 31  1  0
 30 32  1  0
 32 24  1  0
 23 33  1  0
 33 34  2  0
 34 20  1  0
 34 35  1  0
 35 36  1  0
 18 37  1  0
 37 38  2  0
 38 15  1  0
 38  9  1  0
  8 39  2  0
 39 40  1  0
 40 41  1  0
 41 42  1  0
 41 43  1  0
 41 44  1  0
 40 45  2  0
 45  6  1  0
M  END
> <Name>
CHEMBL4078914

> <pChEMBL_Value>
8.48

$$$$
CHEMBL4102389
  SciTegic08122012322D

 41 45  0  0  0  0            999 V2000
    6.4757   -8.2656    0.0000 C   0  0
    5.1799   -7.5101    0.0000 C   0  0
    5.1854   -6.0093    0.0000 C   0  0
    6.4874   -5.2644    0.0000 O   0  0
    3.8888   -5.2533    0.0000 N   0  0
    3.8943   -3.7525    0.0000 C   0  0
    5.1945   -3.0045    0.0000 C   0  0
    5.1969   -1.5045    0.0000 C   0  0
    6.4963   -0.7535    0.0000 C   0  0
    6.4965    0.7465    0.0000 C   0  0
    3.8991   -0.7525    0.0000 C   0  0
    2.5987   -1.5004    0.0000 C   0  0
    1.2990   -0.7500    0.0000 N   0  0
    0.0000   -1.5000    0.0000 C   0  0
    0.0000   -3.0000    0.0000 O   0  0
   -1.2990   -0.7500    0.0000 C   0  0
   -1.2990    0.7500    0.0000 C   0  0
   -2.5981    1.5000    0.0000 C   0  0
    0.0000    1.5000    0.0000 C   0  0
    0.0000    3.0000    0.0000 C   0  0
    1.2990    3.7500    0.0000 N   0  0
    2.5981    3.0000    0.0000 C   0  0
    3.8994    3.7477    0.0000 N   0  0
    3.9034    5.2486    0.0000 C   0  0
    2.6048    5.9995    0.0000 C   0  0
    2.6058    7.4995    0.0000 C   0  0
    3.9054    8.2487    0.0000 C   0  0
    3.9063    9.7494    0.0000 N   0  0
    2.6090   10.5024    0.0000 C   0  0
    2.6124   12.0024    0.0000 C   0  0
    3.9131   12.7495    0.0000 N   0  0
    3.9164   14.2495    0.0000 C   0  0
    5.2104   11.9966    0.0000 C   0  0
    5.2071   10.4966    0.0000 C   0  0
    5.2039    7.4978    0.0000 C   0  0
    5.2029    5.9978    0.0000 C   0  0
    6.5038    5.2493    0.0000 O   0  0
    7.8022    6.0003    0.0000 C   0  0
    2.5981    1.5000    0.0000 N   0  0
    1.2990    0.7500    0.0000 C   0  0
    2.5965   -3.0004    0.0000 C   0  0
  1  2  2  0
  2  3  1  0
  3  4  2  0
  3  5  1  0
  5  6  1  0
  6  7  2  0
  7  8  1  0
  8  9  1  0
  9 10  1  0
  8 11  2  0
 11 12  1  0
 12 13  1  0
 13 14  1  0
 14 15  2  0
 14 16  1  0
 16 17  2  0
 17 18  1  0
 17 19  1  0
 19 20  2  0
 20 21  1  0
 21 22  2  0
 22 23  1  0
 23 24  1  0
 24 25  2  0
 25 26  1  0
 26 27  2  0
 27 28  1  0
 28 29  1  0
 29 30  1  0
 30 31  1  0
 31 32  1  0
 31 33  1  0
 33 34  1  0
 34 28  1  0
 27 35  1  0
 35 36  2  0
 36 24  1  0
 36 37  1  0
 37 38  1  0
 22 39  1  0
 39 40  2  0
 40 19  1  0
 40 13  1  0
 12 41  2  0
 41  6  1  0
M  END
> <Name>
CHEMBL4102389

> <pChEMBL_Value>
8.47

$$$$
CHEMBL2029425
  SciTegic08122012322D

 41 45  0  0  0  0            999 V2000
    6.4757   -8.2656    0.0000 C   0  0
    5.1799   -7.5101    0.0000 C   0  0
    5.1854   -6.0093    0.0000 C   0  0
    6.4874   -5.2644    0.0000 O   0  0
    3.8888   -5.2533    0.0000 N   0  0
    3.8943   -3.7525    0.0000 C   0  0
    5.1945   -3.0045    0.0000 C   0  0
    5.1969   -1.5045    0.0000 C   0  0
    3.8991   -0.7525    0.0000 C   0  0
    2.5987   -1.5004    0.0000 C   0  0
    1.2990   -0.7500    0.0000 N   0  0
    0.0000   -1.5000    0.0000 C   0  0
    0.0000   -3.0000    0.0000 O   0  0
   -1.2990   -0.7500    0.0000 N   0  0
   -2.5981   -1.5000    0.0000 C   0  0
   -1.2990    0.7500    0.0000 C   0  0
    0.0000    1.5000    0.0000 C   0  0
    0.0000    3.0000    0.0000 C   0  0
    1.2990    3.7500    0.0000 N   0  0
    2.5981    3.0000    0.0000 C   0  0
    3.8994    3.7477    0.0000 N   0  0
    5.1981    2.9955    0.0000 C   0  0
    5.1929    1.4954    0.0000 C   0  0
    6.4894    0.7409    0.0000 C   0  0
    7.7910    1.4865    0.0000 C   0  0
    9.0881    0.7316    0.0000 N   0  0
    9.0854   -0.7685    0.0000 C   0  0
   10.3830   -1.5209    0.0000 C   0  0
   11.6835   -0.7733    0.0000 C   0  0
   12.9834   -1.5235    0.0000 N   0  0
   14.2827   -0.7741    0.0000 C   0  0
   12.9832   -3.0235    0.0000 C   0  0
   11.6863    0.7267    0.0000 C   0  0
   10.3886    1.4791    0.0000 C   0  0
    7.7962    2.9864    0.0000 C   0  0
    6.4997    3.7409    0.0000 C   0  0
    6.5081    5.2417    0.0000 O   0  0
    7.8108    5.9853    0.0000 C   0  0
    2.5981    1.5000    0.0000 N   0  0
    1.2990    0.7500    0.0000 C   0  0
    2.5965   -3.0004    0.0000 C   0  0
  1  2  2  0
  2  3  1  0
  3  4  2  0
  3  5  1  0
  5  6  1  0
  6  7  2  0
  7  8  1  0
  8  9  2  0
  9 10  1  0
 10 11  1  0
 11 12  1  0
 12 13  2  0
 12 14  1  0
 14 15  1  0
 14 16  1  0
 16 17  1  0
 17 18  2  0
 18 19  1  0
 19 20  2  0
 20 21  1  0
 21 22  1  0
 22 23  2  0
 23 24  1  0
 24 25  2  0
 25 26  1  0
 26 27  1  0
 27 28  1  0
 28 29  1  0
 29 30  1  0
 30 31  1  0
 30 32  1  0
 29 33  1  0
 33 34  1  0
 34 26  1  0
 25 35  1  0
 35 36  2  0
 36 22  1  0
 36 37  1  0
 37 38  1  0
 20 39  1  0
 39 40  2  0
 40 17  1  0
 40 11  1  0
 10 41  2  0
 41  6  1  0
M  END
> <Name>
CHEMBL2029425

> <pChEMBL_Value>
8.45

$$$$
CHEMBL2437469
  SciTegic08122012322D

 38 42  0  0  0  0            999 V2000
    6.4757   -8.2656    0.0000 C   0  0
    5.1799   -7.5101    0.0000 C   0  0
    5.1854   -6.0093    0.0000 C   0  0
    6.4874   -5.2644    0.0000 O   0  0
    3.8888   -5.2533    0.0000 N   0  0
    3.8943   -3.7525    0.0000 C   0  0
    5.1945   -3.0045    0.0000 C   0  0
    5.1969   -1.5045    0.0000 C   0  0
    3.8991   -0.7525    0.0000 C   0  0
    2.5987   -1.5004    0.0000 C   0  0
    1.2990   -0.7500    0.0000 N   0  0
    0.0000   -1.5000    0.0000 C   0  0
    0.0000   -3.0000    0.0000 O   0  0
   -1.2990   -0.7500    0.0000 C   0  0
   -1.2990    0.7500    0.0000 N   0  0
    0.0000    1.5000    0.0000 C   0  0
    0.0000    3.0000    0.0000 C   0  0
    1.2990    3.7500    0.0000 N   0  0
    2.5981    3.0000    0.0000 C   0  0
    3.8994    3.7477    0.0000 N   0  0
    5.1981    2.9955    0.0000 C   0  0
    5.1929    1.4954    0.0000 C   0  0
    6.4894    0.7409    0.0000 C   0  0
    7.7910    1.4865    0.0000 C   0  0
    9.0881    0.7316    0.0000 N   0  0
    9.0854   -0.7685    0.0000 C   0  0
   10.3830   -1.5209    0.0000 C   0  0
   11.6835   -0.7733    0.0000 N   0  0
   12.9811   -1.5257    0.0000 C   0  0
   11.6863    0.7267    0.0000 C   0  0
   10.3886    1.4791    0.0000 C   0  0
    7.7962    2.9864    0.0000 C   0  0
    6.4997    3.7409    0.0000 C   0  0
    6.5081    5.2417    0.0000 O   0  0
    7.8108    5.9853    0.0000 C   0  0
    2.5981    1.5000    0.0000 N   0  0
    1.2990    0.7500    0.0000 C   0  0
    2.5965   -3.0004    0.0000 C   0  0
  1  2  2  0
  2  3  1  0
  3  4  2  0
  3  5  1  0
  5  6  1  0
  6  7  2  0
  7  8  1  0
  8  9  2  0
  9 10  1  0
 10 11  1  0
 11 12  1  0
 12 13  2  0
 12 14  1  0
 14 15  2  0
 15 16  1  0
 16 17  2  0
 17 18  1  0
 18 19  2  0
 19 20  1  0
 20 21  1  0
 21 22  2  0
 22 23  1  0
 23 24  2  0
 24 25  1  0
 25 26  1  0
 26 27  1  0
 27 28  1  0
 28 29  1  0
 28 30  1  0
 30 31  1  0
 31 25  1  0
 24 32  1  0
 32 33  2  0
 33 21  1  0
 33 34  1  0
 34 35  1  0
 19 36  1  0
 36 37  2  0
 37 16  1  0
 37 11  1  0
 10 38  2  0
 38  6  1  0
M  END
> <Name>
CHEMBL2437469

> <pChEMBL_Value>
8.42

$$$$
CHEMBL4098967
  SciTegic08122012322D

 41 46  0  0  0  0            999 V2000
    0.4248    2.2256    0.0000 C   0  0
    1.0683    3.5805    0.0000 C   0  0
    2.5642    3.7017    0.0000 C   0  0
    3.4163    2.4672    0.0000 O   0  0
    3.2081    5.0574    0.0000 N   0  0
    4.7041    5.1786    0.0000 C   0  0
    5.5540    3.9426    0.0000 C   0  0
    7.0494    4.0606    0.0000 C   0  0
    7.8972    2.8222    0.0000 N   0  0
    9.3937    2.9363    0.0000 C   0  0
   10.2429    1.6998    0.0000 N   0  0
   11.7383    1.8169    0.0000 C   0  0
   12.3846    3.1706    0.0000 C   0  0
   11.5375    4.4025    0.0000 C   0  0
   12.0803    5.8016    0.0000 C   0  0
   13.5306    6.1846    0.0000 C   0  0
   13.6142    7.6815    0.0000 N   0  0
   12.2158    8.2241    0.0000 C   0  0
   11.9864    9.7064    0.0000 C   0  0
   10.4754   10.0436    0.0000 C   0  0
    9.4109    8.9868    0.0000 C   0  0
    9.7939    7.5365    0.0000 C   0  0
   11.2679    7.0625    0.0000 C   0  0
   13.1555   10.6462    0.0000 C   0  0
   14.5540   10.1036    0.0000 C   0  0
   14.7833    8.6213    0.0000 C   0  0
   10.0400    4.2899    0.0000 N   0  0
    7.6948    5.4147    0.0000 C   0  0
    9.1907    5.5359    0.0000 O   0  0
    9.8342    6.8909    0.0000 C   0  0
    6.8449    6.6507    0.0000 C   0  0
    5.3495    6.5326    0.0000 C   0  0
    4.4992    7.7692    0.0000 N   0  0
    3.0121    7.7925    0.0000 C   0  0
    2.5880    9.2313    0.0000 C   0  0
    3.8253   10.0792    0.0000 C   0  0
    3.8697   11.5768    0.0000 C   0  0
    5.1906   12.2893    0.0000 N   0  0
    5.2350   13.7886    0.0000 C   0  0
    6.4672   11.5016    0.0000 C   0  0
    5.0141    9.1645    0.0000 C   0  0
  1  2  2  0
  2  3  1  0
  3  4  2  0
  3  5  1  0
  5  6  1  0
  6  7  2  0
  7  8  1  0
  8  9  1  0
  9 10  1  0
 10 11  2  0
 11 12  1  0
 12 13  2  0
 13 14  1  0
 14 15  1  0
 15 16  2  0
 16 17  1  0
 17 18  1  0
 18 19  2  0
 19 20  1  0
 20 21  2  0
 21 22  1  0
 22 23  2  0
 23 15  1  0
 23 18  1  0
 19 24  1  0
 24 25  1  0
 25 26  1  0
 26 17  1  0
 14 27  2  0
 27 10  1  0
  8 28  2  0
 28 29  1  0
 29 30  1  0
 28 31  1  0
 31 32  2  0
 32  6  1  0
 32 33  1  0
 33 34  1  0
 34 35  1  0
 35 36  1  0
 36 37  1  0
 37 38  1  0
 38 39  1  0
 38 40  1  0
 36 41  1  0
 41 33  1  0
M  END
> <Name>
CHEMBL4098967

> <pChEMBL_Value>
8.40

$$$$
CHEMBL4225781
  SciTegic08122012322D

 42 46  0  0  0  0            999 V2000
    6.4983   -0.7627    0.0000 C   0  0
    5.1972   -1.5092    0.0000 C   0  0
    3.8990   -0.7562    0.0000 C   0  0
    3.9026    0.7438    0.0000 O   0  0
    2.5973   -1.5031    0.0000 N   0  0
    1.2990   -0.7500    0.0000 C   0  0
    1.2990    0.7500    0.0000 C   0  0
    0.0000    1.5000    0.0000 C   0  0
   -1.2990    0.7500    0.0000 C   0  0
   -1.2990   -0.7500    0.0000 C   0  0
   -2.5972   -1.5031    0.0000 N   0  0
   -2.5951   -3.0039    0.0000 C   0  0
   -1.2948   -3.7517    0.0000 O   0  0
   -3.8933   -3.7570    0.0000 N   0  0
   -3.8912   -5.2578    0.0000 C   0  0
   -5.1876   -6.0124    0.0000 C   0  0
   -5.1824   -7.5124    0.0000 C   0  0
   -3.8808   -8.2579    0.0000 N   0  0
   -2.5843   -7.5034    0.0000 C   0  0
   -1.2804   -8.2467    0.0000 N   0  0
    0.0156   -7.4899    0.0000 C   0  0
    0.0053   -5.9899    0.0000 C   0  0
    1.2991   -5.2309    0.0000 C   0  0
    2.6033   -5.9719    0.0000 C   0  0
    3.8978   -5.2125    0.0000 N   0  0
    3.8899   -3.7125    0.0000 C   0  0
    5.1849   -2.9556    0.0000 C   0  0
    6.4879   -3.6987    0.0000 C   0  0
    7.7836   -2.9414    0.0000 N   0  0
    7.7781   -1.4413    0.0000 C   0  0
    9.0743   -0.6865    0.0000 C   0  0
   10.3762   -1.4316    0.0000 O   0  0
   10.3818   -2.9316    0.0000 C   0  0
    9.0856   -3.6864    0.0000 C   0  0
    6.4959   -5.1986    0.0000 C   0  0
    5.2009   -5.9556    0.0000 C   0  0
    2.6137   -7.4719    0.0000 C   0  0
    1.3199   -8.2308    0.0000 C   0  0
    1.3334   -9.7316    0.0000 O   0  0
    2.6387  -10.4707    0.0000 C   0  0
   -2.5895   -6.0034    0.0000 N   0  0
    0.0000   -1.5000    0.0000 C   0  0
  1  2  2  0
  2  3  1  0
  3  4  2  0
  3  5  1  0
  5  6  1  0
  6  7  2  0
  7  8  1  0
  8  9  2  0
  9 10  1  0
 10 11  1  0
 11 12  1  0
 12 13  2  0
 12 14  1  0
 14 15  1  0
 15 16  2  0
 16 17  1  0
 17 18  2  0
 18 19  1  0
 19 20  1  0
 20 21  1  0
 21 22  2  0
 22 23  1  0
 23 24  2  0
 24 25  1  0
 25 26  1  0
 26 27  1  0
 27 28  1  0
 28 29  1  0
 29 30  1  0
 30 31  1  0
 31 32  1  0
 32 33  1  0
 33 34  1  0
 34 29  1  0
 28 35  1  0
 35 36  1  0
 36 25  1  0
 24 37  1  0
 37 38  2  0
 38 21  1  0
 38 39  1  0
 39 40  1  0
 19 41  2  0
 41 15  1  0
 10 42  2  0
 42  6  1  0
M  END
> <Name>
CHEMBL4225781

> <pChEMBL_Value>
8.40

$$$$
CHEMBL4166609
  SciTegic08122012322D

 39 42  0  0  0  0            999 V2000
    0.0311   10.4969    0.0000 C   0  0
   -1.2711    9.7524    0.0000 C   0  0
   -1.2785    8.2516    0.0000 C   0  0
    0.0171    7.4957    0.0000 O   0  0
   -2.5814    7.5068    0.0000 N   0  0
   -2.5887    6.0060    0.0000 C   0  0
   -1.2918    5.2523    0.0000 C   0  0
   -1.2961    3.7523    0.0000 C   0  0
    0.0031    3.0008    0.0000 N   0  0
    1.3039    3.7494    0.0000 C   0  0
    1.3092    5.2494    0.0000 N   0  0
    2.6108    5.9949    0.0000 C   0  0
    3.9072    5.2405    0.0000 C   0  0
    3.9020    3.7405    0.0000 C   0  0
    5.1976    2.9829    0.0000 N   0  0
    5.1903    1.4821    0.0000 C   0  0
    3.8861    0.7410    0.0000 C   0  0
    3.8758   -0.7590    0.0000 C   0  0
    5.1696   -1.5179    0.0000 C   0  0
    6.4738   -0.7769    0.0000 C   0  0
    6.4841    0.7230    0.0000 C   0  0
    7.7890    1.4644    0.0000 N   0  0
    7.9395    2.9440    0.0000 C   0  0
    9.4093    3.2434    0.0000 C   0  0
   10.1482    1.9380    0.0000 C   0  0
    9.1351    0.8319    0.0000 N   0  0
    2.6004    2.9949    0.0000 N   0  0
   -2.5973    3.0060    0.0000 C   0  0
   -2.6046    1.5052    0.0000 O   0  0
   -3.9068    0.7607    0.0000 C   0  0
   -3.8942    3.7597    0.0000 C   0  0
   -3.8899    5.2597    0.0000 C   0  0
   -5.1891    6.0111    0.0000 N   0  0
   -5.1874    7.5111    0.0000 C   0  0
   -6.4899    5.2625    0.0000 C   0  0
   -7.7891    6.0139    0.0000 C   0  0
   -9.0899    5.2654    0.0000 N   0  0
  -10.3883    6.0164    0.0000 C   0  0
   -9.0915    3.7654    0.0000 C   0  0
  1  2  2  0
  2  3  1  0
  3  4  2  0
  3  5  1  0
  5  6  1  0
  6  7  2  0
  7  8  1  0
  8  9  1  0
  9 10  1  0
 10 11  2  0
 11 12  1  0
 12 13  2  0
 13 14  1  0
 14 15  1  0
 15 16  1  0
 16 17  2  0
 17 18  1  0
 18 19  2  0
 19 20  1  0
 20 21  2  0
 21 16  1  0
 21 22  1  0
 22 23  1  0
 23 24  2  0
 24 25  1  0
 25 26  2  0
 26 22  1  0
 14 27  2  0
 27 10  1  0
  8 28  2  0
 28 29  1  0
 29 30  1  0
 28 31  1  0
 31 32  2  0
 32  6  1  0
 32 33  1  0
 33 34  1  0
 33 35  1  0
 35 36  1  0
 36 37  1  0
 37 38  1  0
 37 39  1  0
M  END
> <Name>
CHEMBL4166609

> <pChEMBL_Value>
8.39

$$$$
CHEMBL3753011
  SciTegic08122012322D

 45 50  0  0  0  0            999 V2000
    6.4757   -8.2656    0.0000 C   0  0
    5.1799   -7.5101    0.0000 C   0  0
    5.1854   -6.0093    0.0000 C   0  0
    6.4874   -5.2644    0.0000 O   0  0
    3.8888   -5.2533    0.0000 N   0  0
    3.8943   -3.7525    0.0000 C   0  0
    5.1945   -3.0045    0.0000 C   0  0
    5.1969   -1.5045    0.0000 C   0  0
    3.8991   -0.7525    0.0000 C   0  0
    2.5987   -1.5004    0.0000 C   0  0
    1.2990   -0.7500    0.0000 N   0  0
    0.0000   -1.5000    0.0000 C   0  0
    0.0000   -3.0000    0.0000 O   0  0
   -1.2990   -0.7500    0.0000 C   0  0
   -2.5987   -1.5004    0.0000 C   0  0
   -2.6012   -3.0004    0.0000 C   0  0
   -3.9014   -3.7484    0.0000 C   0  0
   -5.1993   -2.9963    0.0000 C   0  0
   -5.1969   -1.4963    0.0000 C   0  0
   -3.8967   -0.7484    0.0000 C   0  0
   -1.2990    0.7500    0.0000 C   0  0
   -2.5981    1.5000    0.0000 C   0  0
    0.0000    1.5000    0.0000 C   0  0
    0.0000    3.0000    0.0000 C   0  0
    1.2990    3.7500    0.0000 N   0  0
    2.5981    3.0000    0.0000 C   0  0
    3.8994    3.7477    0.0000 N   0  0
    5.1981    2.9955    0.0000 C   0  0
    5.1929    1.4954    0.0000 C   0  0
    6.4894    0.7409    0.0000 C   0  0
    7.7910    1.4865    0.0000 C   0  0
    9.0881    0.7316    0.0000 N   0  0
    9.0854   -0.7685    0.0000 C   0  0
   10.3830   -1.5209    0.0000 C   0  0
   11.6835   -0.7733    0.0000 N   0  0
   12.9811   -1.5257    0.0000 C   0  0
   11.6863    0.7267    0.0000 C   0  0
   10.3886    1.4791    0.0000 C   0  0
    7.7962    2.9864    0.0000 C   0  0
    6.4997    3.7409    0.0000 C   0  0
    6.5081    5.2417    0.0000 O   0  0
    7.8108    5.9853    0.0000 C   0  0
    2.5981    1.5000    0.0000 N   0  0
    1.2990    0.7500    0.0000 C   0  0
    2.5965   -3.0004    0.0000 C   0  0
  1  2  2  0
  2  3  1  0
  3  4  2  0
  3  5  1  0
  5  6  1  0
  6  7  2  0
  7  8  1  0
  8  9  2  0
  9 10  1  0
 10 11  1  0
 11 12  1  0
 12 13  2  0
 12 14  1  0
 14 15  1  0
 15 16  2  0
 16 17  1  0
 17 18  2  0
 18 19  1  0
 19 20  2  0
 20 15  1  0
 14 21  2  0
 21 22  1  0
 21 23  1  0
 23 24  2  0
 24 25  1  0
 25 26  2  0
 26 27  1  0
 27 28  1  0
 28 29  2  0
 29 30  1  0
 30 31  2  0
 31 32  1  0
 32 33  1  0
 33 34  1  0
 34 35  1  0
 35 36  1  0
 35 37  1  0
 37 38  1  0
 38 32  1  0
 31 39  1  0
 39 40  2  0
 40 28  1  0
 40 41  1  0
 41 42  1  0
 26 43  1  0
 43 44  2  0
 44 23  1  0
 44 11  1  0
 10 45  2  0
 45  6  1  0
M  END
> <Name>
CHEMBL3753011

> <pChEMBL_Value>
8.37

$$$$
CHEMBL2029430
  SciTegic08122012322D

 40 44  0  0  0  0            999 V2000
    6.4757   -8.2656    0.0000 C   0  0
    5.1799   -7.5101    0.0000 C   0  0
    5.1854   -6.0093    0.0000 C   0  0
    6.4874   -5.2644    0.0000 O   0  0
    3.8888   -5.2533    0.0000 N   0  0
    3.8943   -3.7525    0.0000 C   0  0
    5.1945   -3.0045    0.0000 C   0  0
    5.1969   -1.5045    0.0000 C   0  0
    3.8991   -0.7525    0.0000 C   0  0
    2.5987   -1.5004    0.0000 C   0  0
    1.2990   -0.7500    0.0000 N   0  0
    0.0000   -1.5000    0.0000 C   0  0
    0.0000   -3.0000    0.0000 O   0  0
   -1.2990   -0.7500    0.0000 N   0  0
   -2.5981   -1.5000    0.0000 C   0  0
   -1.2990    0.7500    0.0000 C   0  0
    0.0000    1.5000    0.0000 C   0  0
    0.0000    3.0000    0.0000 C   0  0
    1.2990    3.7500    0.0000 N   0  0
    2.5981    3.0000    0.0000 C   0  0
    3.8994    3.7477    0.0000 N   0  0
    5.1981    2.9955    0.0000 C   0  0
    5.1929    1.4954    0.0000 C   0  0
    6.4894    0.7409    0.0000 C   0  0
    7.7910    1.4865    0.0000 C   0  0
    9.0881    0.7316    0.0000 N   0  0
    9.0854   -0.7685    0.0000 C   0  0
   10.3830   -1.5209    0.0000 C   0  0
   11.6835   -0.7733    0.0000 N   0  0
   12.9811   -1.5257    0.0000 C   0  0
   11.6863    0.7267    0.0000 C   0  0
   10.3886    1.4791    0.0000 C   0  0
    7.7962    2.9864    0.0000 C   0  0
    6.4997    3.7409    0.0000 C   0  0
    6.5081    5.2417    0.0000 O   0  0
    7.8115    5.9858    0.0000 C   0  0
    7.8198    7.4857    0.0000 C   0  0
    2.5981    1.5000    0.0000 N   0  0
    1.2990    0.7500    0.0000 C   0  0
    2.5965   -3.0004    0.0000 C   0  0
  1  2  2  0
  2  3  1  0
  3  4  2  0
  3  5  1  0
  5  6  1  0
  6  7  2  0
  7  8  1  0
  8  9  2  0
  9 10  1  0
 10 11  1  0
 11 12  1  0
 12 13  2  0
 12 14  1  0
 14 15  1  0
 14 16  1  0
 16 17  1  0
 17 18  2  0
 18 19  1  0
 19 20  2  0
 20 21  1  0
 21 22  1  0
 22 23  2  0
 23 24  1  0
 24 25  2  0
 25 26  1  0
 26 27  1  0
 27 28  1  0
 28 29  1  0
 29 30  1  0
 29 31  1  0
 31 32  1  0
 32 26  1  0
 25 33  1  0
 33 34  2  0
 34 22  1  0
 34 35  1  0
 35 36  1  0
 36 37  1  0
 20 38  1  0
 38 39  2  0
 39 17  1  0
 39 11  1  0
 10 40  2  0
 40  6  1  0
M  END
> <Name>
CHEMBL2029430

> <pChEMBL_Value>
8.36

$$$$
CHEMBL3219133
  SciTegic08122012322D

 48 53  0  0  0  0            999 V2000
    9.1232   -5.7304    0.0000 C   0  0
    7.6464   -5.4679    0.0000 C   0  0
    7.1341   -4.0572    0.0000 C   0  0
    8.0995   -2.9091    0.0000 O   0  0
    5.6565   -3.7945    0.0000 N   0  0
    5.1442   -2.3838    0.0000 C   0  0
    6.1069   -1.2335    0.0000 C   0  0
    5.5920    0.1754    0.0000 C   0  0
    4.1145    0.4339    0.0000 C   0  0
    3.1484   -0.7186    0.0000 C   0  0
    1.6852   -0.3846    0.0000 N   0  0
    0.7500   -1.5574    0.0000 C   0  0
    1.4008   -2.9088    0.0000 O   0  0
   -0.7500   -1.5574    0.0000 C   0  0
   -1.4048   -2.9100    0.0000 C   0  0
   -2.9016   -3.0201    0.0000 C   0  0
   -3.5571   -4.3693    0.0000 C   0  0
   -5.0533   -4.4762    0.0000 C   0  0
   -5.8940   -3.2339    0.0000 C   0  0
   -5.2386   -1.8847    0.0000 C   0  0
   -3.7424   -1.7778    0.0000 C   0  0
   -1.6852   -0.3847    0.0000 N   0  0
   -3.1476   -0.7184    0.0000 C   0  0
   -1.3515    1.0777    0.0000 C   0  0
   -2.5242    2.0130    0.0000 O   0  0
    0.0000    1.7286    0.0000 C   0  0
   -0.1116    3.2255    0.0000 C   0  0
    1.1278    4.0705    0.0000 N   0  0
    2.4793    3.4197    0.0000 C   0  0
    3.7210    4.2626    0.0000 N   0  0
    5.0723    3.6095    0.0000 C   0  0
    5.1793    2.1132    0.0000 C   0  0
    6.5285    1.4577    0.0000 C   0  0
    7.7708    2.2984    0.0000 C   0  0
    9.1206    1.6426    0.0000 N   0  0
    9.2301    0.1465    0.0000 C   0  0
   10.5803   -0.5068    0.0000 C   0  0
   11.8212    0.3359    0.0000 N   0  0
   13.1715   -0.3175    0.0000 C   0  0
   11.7119    1.8319    0.0000 C   0  0
   10.3617    2.4852    0.0000 C   0  0
    7.6638    3.7946    0.0000 C   0  0
    6.3146    4.4501    0.0000 C   0  0
    6.2108    5.9473    0.0000 O   0  0
    7.4543    6.7862    0.0000 C   0  0
    2.5913    1.9239    0.0000 N   0  0
    1.3514    1.0777    0.0000 C   0  0
    3.6667   -2.1252    0.0000 C   0  0
  1  2  2  0
  2  3  1  0
  3  4  2  0
  3  5  1  0
  5  6  1  0
  6  7  2  0
  7  8  1  0
  8  9  2  0
  9 10  1  0
 10 11  1  0
 11 12  1  0
 12 13  2  0
 12 14  1  0
 14 15  1  0
 15 16  1  0
 16 17  2  0
 17 18  1  0
 18 19  2  0
 19 20  1  0
 20 21  2  0
 21 16  1  0
 14 22  1  0
 22 23  1  0
 22 24  1  0
 24 25  2  0
 24 26  1  0
 26 27  2  0
 27 28  1  0
 28 29  2  0
 29 30  1  0
 30 31  1  0
 31 32  2  0
 32 33  1  0
 33 34  2  0
 34 35  1  0
 35 36  1  0
 36 37  1  0
 37 38  1  0
 38 39  1  0
 38 40  1  0
 40 41  1  0
 41 35  1  0
 34 42  1  0
 42 43  2  0
 43 31  1  0
 43 44  1  0
 44 45  1  0
 29 46  1  0
 46 47  2  0
 47 26  1  0
 47 11  1  0
 10 48  2  0
 48  6  1  0
M  END
> <Name>
CHEMBL3219133

> <pChEMBL_Value>
8.33

$$$$
CHEMBL4103912
  SciTegic08122012322D

 38 41  0  0  0  0            999 V2000
   -2.8827  -11.5495    0.0000 C   0  0
   -4.3226  -11.1290    0.0000 C   0  0
   -4.6795   -9.6712    0.0000 C   0  0
   -3.5958   -8.6342    0.0000 O   0  0
   -6.1202   -9.2506    0.0000 N   0  0
   -6.4771   -7.7928    0.0000 C   0  0
   -5.3916   -6.7576    0.0000 C   0  0
   -5.7452   -5.2998    0.0000 C   0  0
   -4.6570   -4.2663    0.0000 N   0  0
   -3.2175   -4.6910    0.0000 C   0  0
   -2.8628   -6.1485    0.0000 N   0  0
   -1.4233   -6.5700    0.0000 C   0  0
   -0.3384   -5.5341    0.0000 C   0  0
   -0.6928   -4.0817    0.0000 C   0  0
    0.3114   -2.9665    0.0000 C   0  0
    1.8032   -3.1233    0.0000 C   0  0
    2.4133   -1.7530    0.0000 N   0  0
    3.8805   -1.4410    0.0000 C   0  0
    1.2990   -0.7500    0.0000 C   0  0
    1.2990    0.7500    0.0000 C   0  0
    0.0000    1.5000    0.0000 C   0  0
   -1.2990    0.7500    0.0000 C   0  0
   -2.5981    1.5000    0.0000 F   0  0
   -1.2990   -0.7500    0.0000 C   0  0
    0.0000   -1.5000    0.0000 C   0  0
   -2.1327   -3.6551    0.0000 N   0  0
   -7.1846   -4.8774    0.0000 C   0  0
   -7.5416   -3.4196    0.0000 O   0  0
   -8.9814   -2.9992    0.0000 C   0  0
   -8.2701   -5.9126    0.0000 C   0  0
   -7.9164   -7.3703    0.0000 C   0  0
   -9.0046   -8.4038    0.0000 N   0  0
   -8.6534   -9.8621    0.0000 C   0  0
  -10.4441   -7.9790    0.0000 C   0  0
  -11.5323   -9.0126    0.0000 C   0  0
  -12.9718   -8.5878    0.0000 N   0  0
  -14.0594   -9.6207    0.0000 C   0  0
  -13.3230   -7.1295    0.0000 C   0  0
  1  2  2  0
  2  3  1  0
  3  4  2  0
  3  5  1  0
  5  6  1  0
  6  7  2  0
  7  8  1  0
  8  9  1  0
  9 10  1  0
 10 11  2  0
 11 12  1  0
 12 13  2  0
 13 14  1  0
 14 15  1  0
 15 16  2  0
 16 17  1  0
 17 18  1  0
 17 19  1  0
 19 20  2  0
 20 21  1  0
 21 22  2  0
 22 23  1  0
 22 24  1  0
 24 25  2  0
 25 15  1  0
 25 19  1  0
 14 26  2  0
 26 10  1  0
  8 27  2  0
 27 28  1  0
 28 29  1  0
 27 30  1  0
 30 31  2  0
 31  6  1  0
 31 32  1  0
 32 33  1  0
 32 34  1  0
 34 35  1  0
 35 36  1  0
 36 37  1  0
 36 38  1  0
M  END
> <Name>
CHEMBL4103912

> <pChEMBL_Value>
8.31

$$$$
CHEMBL2032377
  SciTegic08122012322D

 35 38  0  0  0  0            999 V2000
    6.4757   -8.2656    0.0000 C   0  0
    5.1799   -7.5101    0.0000 C   0  0
    5.1854   -6.0093    0.0000 C   0  0
    6.4874   -5.2644    0.0000 O   0  0
    3.8888   -5.2533    0.0000 N   0  0
    3.8943   -3.7525    0.0000 C   0  0
    5.1945   -3.0045    0.0000 C   0  0
    5.1969   -1.5045    0.0000 C   0  0
    3.8991   -0.7525    0.0000 C   0  0
    2.5987   -1.5004    0.0000 C   0  0
    1.2990   -0.7500    0.0000 N   0  0
    0.0000   -1.5000    0.0000 C   0  0
    0.0000   -3.0000    0.0000 O   0  0
   -1.2990   -0.7500    0.0000 N   0  0
   -2.5981   -1.5000    0.0000 C   0  0
   -1.2990    0.7500    0.0000 C   0  0
    0.0000    1.5000    0.0000 C   0  0
    0.0000    3.0000    0.0000 C   0  0
    1.2990    3.7500    0.0000 N   0  0
    2.5981    3.0000    0.0000 C   0  0
    3.8994    3.7477    0.0000 N   0  0
    5.1981    2.9955    0.0000 C   0  0
    5.1929    1.4954    0.0000 C   0  0
    6.4894    0.7409    0.0000 C   0  0
    7.7910    1.4865    0.0000 C   0  0
    9.0897    0.7342    0.0000 N   0  0
   10.3903    1.4816    0.0000 C   0  0
    9.0871   -0.7658    0.0000 C   0  0
    7.7962    2.9864    0.0000 C   0  0
    6.4997    3.7409    0.0000 C   0  0
    6.5081    5.2417    0.0000 O   0  0
    7.8108    5.9853    0.0000 C   0  0
    2.5981    1.5000    0.0000 N   0  0
    1.2990    0.7500    0.0000 C   0  0
    2.5965   -3.0004    0.0000 C   0  0
  1  2  2  0
  2  3  1  0
  3  4  2  0
  3  5  1  0
  5  6  1  0
  6  7  2  0
  7  8  1  0
  8  9  2  0
  9 10  1  0
 10 11  1  0
 11 12  1  0
 12 13  2  0
 12 14  1  0
 14 15  1  0
 14 16  1  0
 16 17  1  0
 17 18  2  0
 18 19  1  0
 19 20  2  0
 20 21  1  0
 21 22  1  0
 22 23  2  0
 23 24  1  0
 24 25  2  0
 25 26  1  0
 26 27  1  0
 26 28  1  0
 25 29  1  0
 29 30  2  0
 30 22  1  0
 30 31  1  0
 31 32  1  0
 20 33  1  0
 33 34  2  0
 34 17  1  0
 34 11  1  0
 10 35  2  0
 35  6  1  0
M  END
> <Name>
CHEMBL2032377

> <pChEMBL_Value>
8.30

$$$$
CHEMBL4224932
  SciTegic08122012322D

 43 47  0  0  0  0            999 V2000
    6.4983   -0.7627    0.0000 C   0  0
    5.1972   -1.5092    0.0000 C   0  0
    3.8990   -0.7562    0.0000 C   0  0
    3.9026    0.7438    0.0000 O   0  0
    2.5973   -1.5031    0.0000 N   0  0
    1.2990   -0.7500    0.0000 C   0  0
    1.2990    0.7500    0.0000 C   0  0
    0.0000    1.5000    0.0000 C   0  0
   -1.2990    0.7500    0.0000 C   0  0
   -1.2990   -0.7500    0.0000 C   0  0
   -2.5972   -1.5031    0.0000 N   0  0
   -2.5951   -3.0039    0.0000 C   0  0
   -1.2948   -3.7517    0.0000 O   0  0
   -3.8933   -3.7570    0.0000 N   0  0
   -3.8912   -5.2578    0.0000 C   0  0
   -5.1876   -6.0124    0.0000 C   0  0
   -5.1824   -7.5124    0.0000 C   0  0
   -3.8808   -8.2579    0.0000 N   0  0
   -2.5843   -7.5034    0.0000 C   0  0
   -1.2804   -8.2467    0.0000 N   0  0
    0.0156   -7.4899    0.0000 C   0  0
    0.0053   -5.9899    0.0000 C   0  0
    1.2991   -5.2309    0.0000 C   0  0
    2.6033   -5.9719    0.0000 C   0  0
    3.8978   -5.2125    0.0000 N   0  0
    3.8899   -3.7125    0.0000 C   0  0
    5.1849   -2.9556    0.0000 C   0  0
    6.4879   -3.6987    0.0000 C   0  0
    7.7836   -2.9414    0.0000 N   0  0
    7.7781   -1.4413    0.0000 C   0  0
    9.0743   -0.6865    0.0000 C   0  0
   10.3762   -1.4316    0.0000 N   0  0
   11.6724   -0.6767    0.0000 C   0  0
   10.3818   -2.9316    0.0000 C   0  0
    9.0856   -3.6864    0.0000 C   0  0
    6.4959   -5.1986    0.0000 C   0  0
    5.2009   -5.9556    0.0000 C   0  0
    2.6137   -7.4719    0.0000 C   0  0
    1.3199   -8.2308    0.0000 C   0  0
    1.3334   -9.7316    0.0000 O   0  0
    2.6387  -10.4707    0.0000 C   0  0
   -2.5895   -6.0034    0.0000 N   0  0
    0.0000   -1.5000    0.0000 C   0  0
  1  2  2  0
  2  3  1  0
  3  4  2  0
  3  5  1  0
  5  6  1  0
  6  7  2  0
  7  8  1  0
  8  9  2  0
  9 10  1  0
 10 11  1  0
 11 12  1  0
 12 13  2  0
 12 14  1  0
 14 15  1  0
 15 16  2  0
 16 17  1  0
 17 18  2  0
 18 19  1  0
 19 20  1  0
 20 21  1  0
 21 22  2  0
 22 23  1  0
 23 24  2  0
 24 25  1  0
 25 26  1  0
 26 27  1  0
 27 28  1  0
 28 29  1  0
 29 30  1  0
 30 31  1  0
 31 32  1  0
 32 33  1  0
 32 34  1  0
 34 35  1  0
 35 29  1  0
 28 36  1  0
 36 37  1  0
 37 25  1  0
 24 38  1  0
 38 39  2  0
 39 21  1  0
 39 40  1  0
 40 41  1  0
 19 42  2  0
 42 15  1  0
 10 43  2  0
 43  6  1  0
M  END
> <Name>
CHEMBL4224932

> <pChEMBL_Value>
8.30

$$$$
CHEMBL4104658
  SciTegic08122012322D

 39 43  0  0  0  0            999 V2000
    0.4248    2.2256    0.0000 C   0  0
    1.0683    3.5805    0.0000 C   0  0
    2.5642    3.7017    0.0000 C   0  0
    3.4163    2.4672    0.0000 O   0  0
    3.2081    5.0574    0.0000 N   0  0
    4.7041    5.1786    0.0000 C   0  0
    5.5540    3.9426    0.0000 C   0  0
    7.0494    4.0606    0.0000 C   0  0
    7.8972    2.8222    0.0000 N   0  0
    9.3937    2.9363    0.0000 C   0  0
   10.2429    1.6998    0.0000 N   0  0
   11.7383    1.8169    0.0000 C   0  0
   12.3846    3.1706    0.0000 C   0  0
   11.5375    4.4025    0.0000 C   0  0
   12.0803    5.8016    0.0000 C   0  0
   13.5306    6.1846    0.0000 C   0  0
   13.6142    7.6815    0.0000 N   0  0
   12.2158    8.2241    0.0000 C   0  0
   11.9864    9.7064    0.0000 C   0  0
   10.4754   10.0436    0.0000 C   0  0
    9.4109    8.9868    0.0000 C   0  0
    9.7939    7.5365    0.0000 C   0  0
   11.2679    7.0625    0.0000 C   0  0
   13.1555   10.6462    0.0000 C   0  0
   14.5540   10.1036    0.0000 C   0  0
   14.7833    8.6213    0.0000 C   0  0
   10.0400    4.2899    0.0000 N   0  0
    7.6948    5.4147    0.0000 C   0  0
    9.1907    5.5359    0.0000 O   0  0
    9.8342    6.8909    0.0000 C   0  0
    6.8449    6.6507    0.0000 C   0  0
    5.3495    6.5326    0.0000 C   0  0
    4.5017    7.7710    0.0000 N   0  0
    3.0061    7.6556    0.0000 C   0  0
    5.1494    9.1249    0.0000 C   0  0
    4.3016   10.3633    0.0000 C   0  0
    4.9493   11.7172    0.0000 N   0  0
    4.1020   12.9549    0.0000 C   0  0
    6.4449   11.8326    0.0000 C   0  0
  1  2  2  0
  2  3  1  0
  3  4  2  0
  3  5  1  0
  5  6  1  0
  6  7  2  0
  7  8  1  0
  8  9  1  0
  9 10  1  0
 10 11  2  0
 11 12  1  0
 12 13  2  0
 13 14  1  0
 14 15  1  0
 15 16  2  0
 16 17  1  0
 17 18  1  0
 18 19  2  0
 19 20  1  0
 20 21  2  0
 21 22  1  0
 22 23  2  0
 23 15  1  0
 23 18  1  0
 19 24  1  0
 24 25  1  0
 25 26  1  0
 26 17  1  0
 14 27  2  0
 27 10  1  0
  8 28  2  0
 28 29  1  0
 29 30  1  0
 28 31  1  0
 31 32  2  0
 32  6  1  0
 32 33  1  0
 33 34  1  0
 33 35  1  0
 35 36  1  0
 36 37  1  0
 37 38  1  0
 37 39  1  0
M  END
> <Name>
CHEMBL4104658

> <pChEMBL_Value>
8.28

$$$$
CHEMBL3699607
  SciTegic08122012322D

 43 46  0  0  0  0            999 V2000
    3.8912   -5.2570    0.0000 C   0  0
    3.8933   -3.7570    0.0000 C   0  0
    2.5951   -3.0039    0.0000 C   0  0
    1.2948   -3.7516    0.0000 O   0  0
    2.5973   -1.5031    0.0000 N   0  0
    1.2990   -0.7500    0.0000 C   0  0
    1.2990    0.7500    0.0000 C   0  0
    0.0000    1.5000    0.0000 C   0  0
   -1.2990    0.7500    0.0000 C   0  0
   -1.2990   -0.7500    0.0000 C   0  0
   -2.5972   -1.5031    0.0000 N   0  0
   -2.5951   -3.0039    0.0000 C   0  0
   -1.2935   -3.7495    0.0000 N   0  0
   -1.2883   -5.2495    0.0000 C   0  0
    0.0125   -5.9981    0.0000 N   0  0
    0.0156   -7.4989    0.0000 C   0  0
   -1.2835   -8.2490    0.0000 C   0  0
   -1.2835   -9.7490    0.0000 C   0  0
    0.0156  -10.4990    0.0000 C   0  0
    0.0156  -11.9998    0.0000 N   0  0
   -1.2823  -12.7520    0.0000 C   0  0
   -1.2799  -14.2520    0.0000 C   0  0
    0.0203  -14.9999    0.0000 N   0  0
    0.0258  -16.5007    0.0000 C   0  0
   -1.2707  -17.2550    0.0000 C   0  0
    1.3271  -17.2468    0.0000 O   0  0
    1.3182  -14.2478    0.0000 C   0  0
    1.3158  -12.7478    0.0000 C   0  0
    1.3146   -9.7490    0.0000 C   0  0
    1.3146   -8.2490    0.0000 C   0  0
    2.6159   -7.5013    0.0000 O   0  0
    3.9146   -8.2536    0.0000 C   0  0
    5.2152   -7.5063    0.0000 F   0  0
    3.9119   -9.7536    0.0000 F   0  0
    5.2122   -9.0061    0.0000 F   0  0
   -2.5847   -6.0040    0.0000 N   0  0
   -3.8863   -5.2585    0.0000 C   0  0
   -3.8915   -3.7585    0.0000 C   0  0
   -5.1939   -3.0126    0.0000 C   0  0
   -6.4908   -3.7663    0.0000 F   0  0
   -5.1987   -1.5126    0.0000 F   0  0
   -6.4952   -2.2666    0.0000 F   0  0
    0.0000   -1.5000    0.0000 C   0  0
  1  2  2  0
  2  3  1  0
  3  4  2  0
  3  5  1  0
  5  6  1  0
  6  7  2  0
  7  8  1  0
  8  9  2  0
  9 10  1  0
 10 11  1  0
 11 12  1  0
 12 13  2  0
 13 14  1  0
 14 15  1  0
 15 16  1  0
 16 17  2  0
 17 18  1  0
 18 19  2  0
 19 20  1  0
 20 21  1  0
 21 22  1  0
 22 23  1  0
 23 24  1  0
 24 25  1  0
 24 26  2  0
 23 27  1  0
 27 28  1  0
 28 20  1  0
 19 29  1  0
 29 30  2  0
 30 16  1  0
 30 31  1  0
 31 32  1  0
 32 33  1  0
 32 34  1  0
 32 35  1  0
 14 36  2  0
 36 37  1  0
 37 38  2  0
 38 12  1  0
 38 39  1  0
 39 40  1  0
 39 41  1  0
 39 42  1  0
 10 43  2  0
 43  6  1  0
M  END
> <Name>
CHEMBL3699607

> <pChEMBL_Value>
8.26

$$$$
CHEMBL3699584
  SciTegic08122012322D

 41 44  0  0  0  0            999 V2000
    3.8912   -5.2570    0.0000 C   0  0
    3.8933   -3.7570    0.0000 C   0  0
    2.5951   -3.0039    0.0000 C   0  0
    1.2948   -3.7516    0.0000 O   0  0
    2.5973   -1.5031    0.0000 N   0  0
    1.2990   -0.7500    0.0000 C   0  0
    1.2990    0.7500    0.0000 C   0  0
    0.0000    1.5000    0.0000 C   0  0
   -1.2990    0.7500    0.0000 C   0  0
   -1.2990   -0.7500    0.0000 C   0  0
   -2.5972   -1.5031    0.0000 N   0  0
   -2.5951   -3.0039    0.0000 C   0  0
   -1.2935   -3.7495    0.0000 N   0  0
   -1.2883   -5.2495    0.0000 C   0  0
    0.0125   -5.9981    0.0000 N   0  0
    0.0156   -7.4989    0.0000 C   0  0
   -1.2835   -8.2490    0.0000 C   0  0
   -1.2835   -9.7490    0.0000 C   0  0
    0.0156  -10.4990    0.0000 C   0  0
    0.0156  -11.9998    0.0000 N   0  0
   -1.2823  -12.7520    0.0000 C   0  0
   -1.2799  -14.2520    0.0000 C   0  0
    0.0203  -14.9999    0.0000 N   0  0
    0.0258  -16.5007    0.0000 C   0  0
   -1.2707  -17.2550    0.0000 O   0  0
    1.3278  -17.2472    0.0000 C   0  0
    1.3333  -18.7472    0.0000 O   0  0
    1.3182  -14.2478    0.0000 C   0  0
    1.3158  -12.7478    0.0000 C   0  0
    1.3146   -9.7490    0.0000 C   0  0
    1.3146   -8.2490    0.0000 C   0  0
    2.6159   -7.5013    0.0000 O   0  0
    3.9139   -8.2532    0.0000 C   0  0
   -2.5847   -6.0040    0.0000 N   0  0
   -3.8863   -5.2585    0.0000 C   0  0
   -3.8915   -3.7585    0.0000 C   0  0
   -5.1939   -3.0126    0.0000 C   0  0
   -6.4908   -3.7663    0.0000 F   0  0
   -5.1987   -1.5126    0.0000 F   0  0
   -6.4952   -2.2666    0.0000 F   0  0
    0.0000   -1.5000    0.0000 C   0  0
  1  2  2  0
  2  3  1  0
  3  4  2  0
  3  5  1  0
  5  6  1  0
  6  7  2  0
  7  8  1  0
  8  9  2  0
  9 10  1  0
 10 11  1  0
 11 12  1  0
 12 13  2  0
 13 14  1  0
 14 15  1  0
 15 16  1  0
 16 17  2  0
 17 18  1  0
 18 19  2  0
 19 20  1  0
 20 21  1  0
 21 22  1  0
 22 23  1  0
 23 24  1  0
 24 25  2  0
 24 26  1  0
 26 27  1  0
 23 28  1  0
 28 29  1  0
 29 20  1  0
 19 30  1  0
 30 31  2  0
 31 16  1  0
 31 32  1  0
 32 33  1  0
 14 34  2  0
 34 35  1  0
 35 36  2  0
 36 12  1  0
 36 37  1  0
 37 38  1  0
 37 39  1  0
 37 40  1  0
 10 41  2  0
 41  6  1  0
M  END
> <Name>
CHEMBL3699584

> <pChEMBL_Value>
8.26

$$$$
CHEMBL3699586
  SciTegic08122012322D

 37 40  0  0  0  0            999 V2000
    3.8912   -5.2570    0.0000 C   0  0
    3.8933   -3.7570    0.0000 C   0  0
    2.5951   -3.0039    0.0000 C   0  0
    1.2948   -3.7516    0.0000 O   0  0
    2.5973   -1.5031    0.0000 N   0  0
    1.2990   -0.7500    0.0000 C   0  0
    1.2990    0.7500    0.0000 C   0  0
    0.0000    1.5000    0.0000 C   0  0
   -1.2990    0.7500    0.0000 C   0  0
   -1.2990   -0.7500    0.0000 C   0  0
   -2.5972   -1.5031    0.0000 N   0  0
   -2.5951   -3.0039    0.0000 C   0  0
   -1.2935   -3.7495    0.0000 N   0  0
   -1.2883   -5.2495    0.0000 C   0  0
    0.0125   -5.9981    0.0000 N   0  0
    0.0156   -7.4989    0.0000 C   0  0
   -1.2835   -8.2490    0.0000 C   0  0
   -1.2835   -9.7490    0.0000 C   0  0
    0.0156  -10.4990    0.0000 C   0  0
    0.0156  -11.9998    0.0000 N   0  0
   -1.2823  -12.7520    0.0000 C   0  0
   -1.2799  -14.2520    0.0000 C   0  0
    0.0203  -14.9999    0.0000 N   0  0
    0.0258  -16.5007    0.0000 C   0  0
   -1.2707  -17.2550    0.0000 C   0  0
    1.3271  -17.2468    0.0000 O   0  0
    1.3182  -14.2478    0.0000 C   0  0
    1.3158  -12.7478    0.0000 C   0  0
    1.3146   -9.7490    0.0000 C   0  0
    1.3146   -8.2490    0.0000 C   0  0
    2.6159   -7.5013    0.0000 O   0  0
    3.9139   -8.2532    0.0000 C   0  0
   -2.5847   -6.0040    0.0000 N   0  0
   -3.8863   -5.2585    0.0000 C   0  0
   -3.8915   -3.7585    0.0000 C   0  0
   -5.1932   -3.0130    0.0000 Cl  0  0
    0.0000   -1.5000    0.0000 C   0  0
  1  2  2  0
  2  3  1  0
  3  4  2  0
  3  5  1  0
  5  6  1  0
  6  7  2  0
  7  8  1  0
  8  9  2  0
  9 10  1  0
 10 11  1  0
 11 12  1  0
 12 13  2  0
 13 14  1  0
 14 15  1  0
 15 16  1  0
 16 17  2  0
 17 18  1  0
 18 19  2  0
 19 20  1  0
 20 21  1  0
 21 22  1  0
 22 23  1  0
 23 24  1  0
 24 25  1  0
 24 26  2  0
 23 27  1  0
 27 28  1  0
 28 20  1  0
 19 29  1  0
 29 30  2  0
 30 16  1  0
 30 31  1  0
 31 32  1  0
 14 33  2  0
 33 34  1  0
 34 35  2  0
 35 12  1  0
 35 36  1  0
 10 37  2  0
 37  6  1  0
M  END
> <Name>
CHEMBL3699586

> <pChEMBL_Value>
8.26

$$$$
CHEMBL3699618
  SciTegic08122012322D

 44 47  0  0  0  0            999 V2000
    3.8912   -5.2570    0.0000 C   0  0
    3.8933   -3.7570    0.0000 C   0  0
    2.5951   -3.0039    0.0000 C   0  0
    1.2948   -3.7516    0.0000 O   0  0
    2.5973   -1.5031    0.0000 N   0  0
    1.2990   -0.7500    0.0000 C   0  0
    1.2990    0.7500    0.0000 C   0  0
    0.0000    1.5000    0.0000 C   0  0
   -1.2990    0.7500    0.0000 C   0  0
   -1.2990   -0.7500    0.0000 C   0  0
   -2.5972   -1.5031    0.0000 N   0  0
   -2.5951   -3.0039    0.0000 C   0  0
   -1.2935   -3.7495    0.0000 N   0  0
   -1.2883   -5.2495    0.0000 C   0  0
    0.0125   -5.9981    0.0000 N   0  0
    0.0156   -7.4989    0.0000 C   0  0
   -1.2835   -8.2490    0.0000 C   0  0
   -1.2835   -9.7490    0.0000 C   0  0
    0.0156  -10.4990    0.0000 C   0  0
    0.0156  -11.9998    0.0000 N   0  0
   -1.2823  -12.7520    0.0000 C   0  0
   -1.2799  -14.2520    0.0000 C   0  0
    0.0203  -14.9999    0.0000 N   0  0
    0.0258  -16.5007    0.0000 C   0  0
   -1.2707  -17.2550    0.0000 O   0  0
    1.3278  -17.2472    0.0000 C   0  0
    1.3333  -18.7480    0.0000 C   0  0
    2.6346  -19.4941    0.0000 C   0  0
    1.3381  -20.2480    0.0000 C   0  0
    0.0368  -19.5023    0.0000 C   0  0
    1.3182  -14.2478    0.0000 C   0  0
    1.3158  -12.7478    0.0000 C   0  0
    1.3146   -9.7490    0.0000 C   0  0
    1.3146   -8.2490    0.0000 C   0  0
    2.6159   -7.5013    0.0000 O   0  0
    3.9139   -8.2532    0.0000 C   0  0
   -2.5847   -6.0040    0.0000 N   0  0
   -3.8863   -5.2585    0.0000 C   0  0
   -3.8915   -3.7585    0.0000 C   0  0
   -5.1939   -3.0126    0.0000 C   0  0
   -6.4908   -3.7663    0.0000 F   0  0
   -5.1987   -1.5126    0.0000 F   0  0
   -6.4952   -2.2666    0.0000 F   0  0
    0.0000   -1.5000    0.0000 C   0  0
  1  2  2  0
  2  3  1  0
  3  4  2  0
  3  5  1  0
  5  6  1  0
  6  7  2  0
  7  8  1  0
  8  9  2  0
  9 10  1  0
 10 11  1  0
 11 12  1  0
 12 13  2  0
 13 14  1  0
 14 15  1  0
 15 16  1  0
 16 17  2  0
 17 18  1  0
 18 19  2  0
 19 20  1  0
 20 21  1  0
 21 22  1  0
 22 23  1  0
 23 24  1  0
 24 25  2  0
 24 26  1  0
 26 27  1  0
 27 28  1  0
 27 29  1  0
 27 30  1  0
 23 31  1  0
 31 32  1  0
 32 20  1  0
 19 33  1  0
 33 34  2  0
 34 16  1  0
 34 35  1  0
 35 36  1  0
 14 37  2  0
 37 38  1  0
 38 39  2  0
 39 12  1  0
 39 40  1  0
 40 41  1  0
 40 42  1  0
 40 43  1  0
 10 44  2  0
 44  6  1  0
M  END
> <Name>
CHEMBL3699618

> <pChEMBL_Value>
8.26

$$$$
CHEMBL3699622
  SciTegic08122012322D

 39 42  0  0  0  0            999 V2000
    3.8912   -5.2570    0.0000 C   0  0
    3.8933   -3.7570    0.0000 C   0  0
    2.5951   -3.0039    0.0000 C   0  0
    1.2948   -3.7516    0.0000 O   0  0
    2.5973   -1.5031    0.0000 N   0  0
    1.2990   -0.7500    0.0000 C   0  0
    1.2990    0.7500    0.0000 C   0  0
    0.0000    1.5000    0.0000 C   0  0
   -1.2990    0.7500    0.0000 C   0  0
   -1.2990   -0.7500    0.0000 C   0  0
   -2.5972   -1.5031    0.0000 N   0  0
   -2.5951   -3.0039    0.0000 C   0  0
   -1.2935   -3.7495    0.0000 N   0  0
   -1.2883   -5.2495    0.0000 C   0  0
    0.0125   -5.9981    0.0000 N   0  0
    0.0156   -7.4989    0.0000 C   0  0
   -1.2835   -8.2490    0.0000 C   0  0
   -1.2835   -9.7490    0.0000 C   0  0
    0.0156  -10.4990    0.0000 C   0  0
    0.0156  -11.9998    0.0000 N   0  0
   -1.2823  -12.7520    0.0000 C   0  0
   -1.2799  -14.2520    0.0000 C   0  0
    0.0203  -14.9999    0.0000 S   0  0
   -1.2949  -15.7211    0.0000 O   0  0
    1.3378  -15.7171    0.0000 O   0  0
    1.3182  -14.2478    0.0000 C   0  0
    1.3158  -12.7478    0.0000 C   0  0
    1.3146   -9.7490    0.0000 C   0  0
    1.3146   -8.2490    0.0000 C   0  0
    2.6159   -7.5013    0.0000 O   0  0
    3.9139   -8.2532    0.0000 C   0  0
   -2.5847   -6.0040    0.0000 N   0  0
   -3.8863   -5.2585    0.0000 C   0  0
   -3.8915   -3.7585    0.0000 C   0  0
   -5.1939   -3.0126    0.0000 C   0  0
   -6.4908   -3.7663    0.0000 F   0  0
   -5.1987   -1.5126    0.0000 F   0  0
   -6.4952   -2.2666    0.0000 F   0  0
    0.0000   -1.5000    0.0000 C   0  0
  1  2  2  0
  2  3  1  0
  3  4  2  0
  3  5  1  0
  5  6  1  0
  6  7  2  0
  7  8  1  0
  8  9  2  0
  9 10  1  0
 10 11  1  0
 11 12  1  0
 12 13  2  0
 13 14  1  0
 14 15  1  0
 15 16  1  0
 16 17  2  0
 17 18  1  0
 18 19  2  0
 19 20  1  0
 20 21  1  0
 21 22  1  0
 22 23  1  0
 23 24  2  0
 23 25  2  0
 23 26  1  0
 26 27  1  0
 27 20  1  0
 19 28  1  0
 28 29  2  0
 29 16  1  0
 29 30  1  0
 30 31  1  0
 14 32  2  0
 32 33  1  0
 33 34  2  0
 34 12  1  0
 34 35  1  0
 35 36  1  0
 35 37  1  0
 35 38  1  0
 10 39  2  0
 39  6  1  0
M  END
> <Name>
CHEMBL3699622

> <pChEMBL_Value>
8.26

$$$$
CHEMBL3699614
  SciTegic08122012322D

 37 40  0  0  0  0            999 V2000
    3.8912   -5.2570    0.0000 C   0  0
    3.8933   -3.7570    0.0000 C   0  0
    2.5951   -3.0039    0.0000 C   0  0
    1.2948   -3.7516    0.0000 O   0  0
    2.5973   -1.5031    0.0000 N   0  0
    1.2990   -0.7500    0.0000 C   0  0
    1.2990    0.7500    0.0000 C   0  0
    0.0000    1.5000    0.0000 C   0  0
   -1.2990    0.7500    0.0000 C   0  0
   -1.2990   -0.7500    0.0000 C   0  0
   -2.5972   -1.5031    0.0000 N   0  0
   -2.5951   -3.0039    0.0000 C   0  0
   -1.2935   -3.7495    0.0000 N   0  0
   -1.2883   -5.2495    0.0000 C   0  0
    0.0125   -5.9981    0.0000 N   0  0
    0.0156   -7.4989    0.0000 C   0  0
   -1.2835   -8.2490    0.0000 C   0  0
   -1.2835   -9.7490    0.0000 C   0  0
    0.0156  -10.4990    0.0000 C   0  0
    0.0156  -11.9998    0.0000 N   0  0
   -1.2823  -12.7520    0.0000 C   0  0
   -1.2799  -14.2520    0.0000 C   0  0
    0.0203  -14.9999    0.0000 N   0  0
    0.0258  -16.5007    0.0000 C   0  0
   -1.2707  -17.2550    0.0000 C   0  0
    1.3271  -17.2468    0.0000 O   0  0
    1.3182  -14.2478    0.0000 C   0  0
    1.3158  -12.7478    0.0000 C   0  0
    1.3146   -9.7490    0.0000 C   0  0
    1.3146   -8.2490    0.0000 C   0  0
    2.6159   -7.5013    0.0000 O   0  0
    3.9139   -8.2532    0.0000 C   0  0
   -2.5847   -6.0040    0.0000 N   0  0
   -3.8863   -5.2585    0.0000 C   0  0
   -3.8915   -3.7585    0.0000 C   0  0
   -5.1932   -3.0130    0.0000 Br  0  0
    0.0000   -1.5000    0.0000 C   0  0
  1  2  2  0
  2  3  1  0
  3  4  2  0
  3  5  1  0
  5  6  1  0
  6  7  2  0
  7  8  1  0
  8  9  2  0
  9 10  1  0
 10 11  1  0
 11 12  1  0
 12 13  2  0
 13 14  1  0
 14 15  1  0
 15 16  1  0
 16 17  2  0
 17 18  1  0
 18 19  2  0
 19 20  1  0
 20 21  1  0
 21 22  1  0
 22 23  1  0
 23 24  1  0
 24 25  1  0
 24 26  2  0
 23 27  1  0
 27 28  1  0
 28 20  1  0
 19 29  1  0
 29 30  2  0
 30 16  1  0
 30 31  1  0
 31 32  1  0
 14 33  2  0
 33 34  1  0
 34 35  2  0
 35 12  1  0
 35 36  1  0
 10 37  2  0
 37  6  1  0
M  END
> <Name>
CHEMBL3699614

> <pChEMBL_Value>
8.26

$$$$
CHEMBL3699595
  SciTegic08122012322D

 44 47  0  0  0  0            999 V2000
    7.6472   -5.4375    0.0000 C   0  0
    9.1243   -5.6982    0.0000 C   0  0
   10.0899   -4.5492    0.0000 C   0  0
    9.5775   -3.1394    0.0000 O   0  0
   11.5679   -4.8100    0.0000 N   0  0
   12.5335   -3.6610    0.0000 C   0  0
   14.0111   -3.9196    0.0000 C   0  0
   14.9737   -2.7693    0.0000 C   0  0
   14.4589   -1.3604    0.0000 C   0  0
   12.9813   -1.1018    0.0000 C   0  0
   12.4633    0.3068    0.0000 N   0  0
   10.9846    0.5635    0.0000 C   0  0
   10.0259   -0.5902    0.0000 N   0  0
    8.5474   -0.3368    0.0000 C   0  0
    7.5858   -1.4891    0.0000 N   0  0
    6.1069   -1.2335    0.0000 C   0  0
    5.5920    0.1754    0.0000 C   0  0
    4.1145    0.4339    0.0000 C   0  0
    3.1484   -0.7186    0.0000 C   0  0
    1.6852   -0.3846    0.0000 N   0  0
    1.3514    1.0778    0.0000 C   0  0
    0.0000    1.7286    0.0000 C   0  0
   -1.3515    1.0777    0.0000 C   0  0
   -1.6852   -0.3847    0.0000 N   0  0
   -3.1497   -0.7220    0.0000 C   0  0
   -4.1718    0.3758    0.0000 O   0  0
   -3.5900   -2.1568    0.0000 C   0  0
   -5.0517   -2.4936    0.0000 F   0  0
   -4.0294   -3.5910    0.0000 F   0  0
   -2.5678   -3.2546    0.0000 F   0  0
   -0.7500   -1.5574    0.0000 C   0  0
    0.7500   -1.5574    0.0000 C   0  0
    3.6667   -2.1252    0.0000 C   0  0
    5.1442   -2.3838    0.0000 C   0  0
    5.6565   -3.7945    0.0000 O   0  0
    4.6921   -4.9435    0.0000 C   0  0
    8.0277    1.0704    0.0000 N   0  0
    8.9864    2.2240    0.0000 C   0  0
   10.4648    1.9705    0.0000 C   0  0
   11.4241    3.1248    0.0000 C   0  0
   10.9052    4.5322    0.0000 F   0  0
   12.9024    2.8709    0.0000 F   0  0
   12.3833    4.2780    0.0000 F   0  0
   12.0186   -2.2522    0.0000 C   0  0
  1  2  2  0
  2  3  1  0
  3  4  2  0
  3  5  1  0
  5  6  1  0
  6  7  2  0
  7  8  1  0
  8  9  2  0
  9 10  1  0
 10 11  1  0
 11 12  1  0
 12 13  2  0
 13 14  1  0
 14 15  1  0
 15 16  1  0
 16 17  2  0
 17 18  1  0
 18 19  2  0
 19 20  1  0
 20 21  1  0
 21 22  1  0
 22 23  1  0
 23 24  1  0
 24 25  1  0
 25 26  2  0
 25 27  1  0
 27 28  1  0
 27 29  1  0
 27 30  1  0
 24 31  1  0
 31 32  1  0
 32 20  1  0
 19 33  1  0
 33 34  2  0
 34 16  1  0
 34 35  1  0
 35 36  1  0
 14 37  2  0
 37 38  1  0
 38 39  2  0
 39 12  1  0
 39 40  1  0
 40 41  1  0
 40 42  1  0
 40 43  1  0
 10 44  2  0
 44  6  1  0
M  END
> <Name>
CHEMBL3699595

> <pChEMBL_Value>
8.26

$$$$
CHEMBL3699603
  SciTegic08122012322D

 41 44  0  0  0  0            999 V2000
    3.8912   -5.2570    0.0000 C   0  0
    3.8933   -3.7570    0.0000 C   0  0
    2.5951   -3.0039    0.0000 C   0  0
    1.2948   -3.7516    0.0000 O   0  0
    2.5973   -1.5031    0.0000 N   0  0
    1.2990   -0.7500    0.0000 C   0  0
    1.2990    0.7500    0.0000 C   0  0
    0.0000    1.5000    0.0000 C   0  0
   -1.2990    0.7500    0.0000 C   0  0
   -1.2990   -0.7500    0.0000 C   0  0
   -2.5972   -1.5031    0.0000 N   0  0
   -2.5951   -3.0039    0.0000 C   0  0
   -1.2935   -3.7495    0.0000 N   0  0
   -1.2883   -5.2495    0.0000 C   0  0
    0.0125   -5.9981    0.0000 N   0  0
    0.0156   -7.4989    0.0000 C   0  0
   -1.2835   -8.2490    0.0000 C   0  0
   -1.2835   -9.7490    0.0000 C   0  0
    0.0156  -10.4990    0.0000 C   0  0
    0.0156  -11.9998    0.0000 N   0  0
   -1.2823  -12.7520    0.0000 C   0  0
   -1.2799  -14.2520    0.0000 C   0  0
    0.0203  -14.9999    0.0000 N   0  0
    0.0258  -16.5007    0.0000 C   0  0
   -1.2707  -17.2550    0.0000 O   0  0
    1.3278  -17.2472    0.0000 N   0  0
    1.3333  -18.7472    0.0000 C   0  0
    1.3182  -14.2478    0.0000 C   0  0
    1.3158  -12.7478    0.0000 C   0  0
    1.3146   -9.7490    0.0000 C   0  0
    1.3146   -8.2490    0.0000 C   0  0
    2.6159   -7.5013    0.0000 O   0  0
    3.9139   -8.2532    0.0000 C   0  0
   -2.5847   -6.0040    0.0000 N   0  0
   -3.8863   -5.2585    0.0000 C   0  0
   -3.8915   -3.7585    0.0000 C   0  0
   -5.1939   -3.0126    0.0000 C   0  0
   -6.4908   -3.7663    0.0000 F   0  0
   -5.1987   -1.5126    0.0000 F   0  0
   -6.4952   -2.2666    0.0000 F   0  0
    0.0000   -1.5000    0.0000 C   0  0
  1  2  2  0
  2  3  1  0
  3  4  2  0
  3  5  1  0
  5  6  1  0
  6  7  2  0
  7  8  1  0
  8  9  2  0
  9 10  1  0
 10 11  1  0
 11 12  1  0
 12 13  2  0
 13 14  1  0
 14 15  1  0
 15 16  1  0
 16 17  2  0
 17 18  1  0
 18 19  2  0
 19 20  1  0
 20 21  1  0
 21 22  1  0
 22 23  1  0
 23 24  1  0
 24 25  2  0
 24 26  1  0
 26 27  1  0
 23 28  1  0
 28 29  1  0
 29 20  1  0
 19 30  1  0
 30 31  2  0
 31 16  1  0
 31 32  1  0
 32 33  1  0
 14 34  2  0
 34 35  1  0
 35 36  2  0
 36 12  1  0
 36 37  1  0
 37 38  1  0
 37 39  1  0
 37 40  1  0
 10 41  2  0
 41  6  1  0
M  END
> <Name>
CHEMBL3699603

> <pChEMBL_Value>
8.26

$$$$
CHEMBL3699615
  SciTegic08122012322D

 38 41  0  0  0  0            999 V2000
    3.8912   -5.2570    0.0000 C   0  0
    3.8933   -3.7570    0.0000 C   0  0
    2.5951   -3.0039    0.0000 C   0  0
    1.2948   -3.7516    0.0000 O   0  0
    2.5973   -1.5031    0.0000 N   0  0
    1.2990   -0.7500    0.0000 C   0  0
    1.2990    0.7500    0.0000 C   0  0
    0.0000    1.5000    0.0000 C   0  0
   -1.2990    0.7500    0.0000 C   0  0
   -1.2990   -0.7500    0.0000 C   0  0
   -2.5972   -1.5031    0.0000 N   0  0
   -2.5951   -3.0039    0.0000 C   0  0
   -1.2935   -3.7495    0.0000 N   0  0
   -1.2883   -5.2495    0.0000 C   0  0
    0.0125   -5.9981    0.0000 N   0  0
    0.0156   -7.4989    0.0000 C   0  0
   -1.2835   -8.2490    0.0000 C   0  0
   -1.2835   -9.7490    0.0000 C   0  0
    0.0156  -10.4990    0.0000 C   0  0
    0.0156  -11.9998    0.0000 N   0  0
   -1.2823  -12.7520    0.0000 C   0  0
   -1.2799  -14.2520    0.0000 C   0  0
    0.0203  -14.9999    0.0000 N   0  0
    0.0227  -16.5007    0.0000 S   0  0
    1.3232  -17.2482    0.0000 C   0  0
   -1.2746  -17.2536    0.0000 O   0  0
    0.0258  -18.0007    0.0000 O   0  0
    1.3182  -14.2478    0.0000 C   0  0
    1.3158  -12.7478    0.0000 C   0  0
    1.3146   -9.7490    0.0000 C   0  0
    1.3146   -8.2490    0.0000 C   0  0
    2.6159   -7.5013    0.0000 O   0  0
    3.9139   -8.2532    0.0000 C   0  0
   -2.5847   -6.0040    0.0000 N   0  0
   -3.8863   -5.2585    0.0000 C   0  0
   -3.8915   -3.7585    0.0000 C   0  0
   -5.1932   -3.0130    0.0000 Cl  0  0
    0.0000   -1.5000    0.0000 C   0  0
  1  2  2  0
  2  3  1  0
  3  4  2  0
  3  5  1  0
  5  6  1  0
  6  7  2  0
  7  8  1  0
  8  9  2  0
  9 10  1  0
 10 11  1  0
 11 12  1  0
 12 13  2  0
 13 14  1  0
 14 15  1  0
 15 16  1  0
 16 17  2  0
 17 18  1  0
 18 19  2  0
 19 20  1  0
 20 21  1  0
 21 22  1  0
 22 23  1  0
 23 24  1  0
 24 25  1  0
 24 26  2  0
 24 27  2  0
 23 28  1  0
 28 29  1  0
 29 20  1  0
 19 30  1  0
 30 31  2  0
 31 16  1  0
 31 32  1  0
 32 33  1  0
 14 34  2  0
 34 35  1  0
 35 36  2  0
 36 12  1  0
 36 37  1  0
 10 38  2  0
 38  6  1  0
M  END
> <Name>
CHEMBL3699615

> <pChEMBL_Value>
8.26

$$$$
CHEMBL3699613
  SciTegic08122012322D

 45 48  0  0  0  0            999 V2000
    7.6472   -5.4375    0.0000 C   0  0
    9.1243   -5.6982    0.0000 C   0  0
   10.0899   -4.5492    0.0000 C   0  0
    9.5775   -3.1394    0.0000 O   0  0
   11.5679   -4.8100    0.0000 N   0  0
   12.5335   -3.6610    0.0000 C   0  0
   14.0111   -3.9196    0.0000 C   0  0
   14.9737   -2.7693    0.0000 C   0  0
   14.4589   -1.3604    0.0000 C   0  0
   12.9813   -1.1018    0.0000 C   0  0
   12.4633    0.3068    0.0000 N   0  0
   10.9846    0.5635    0.0000 C   0  0
   10.0259   -0.5902    0.0000 N   0  0
    8.5474   -0.3368    0.0000 C   0  0
    7.5858   -1.4891    0.0000 N   0  0
    6.1069   -1.2335    0.0000 C   0  0
    5.5920    0.1754    0.0000 C   0  0
    4.1145    0.4339    0.0000 C   0  0
    3.1484   -0.7186    0.0000 C   0  0
    1.6852   -0.3846    0.0000 N   0  0
    1.3514    1.0778    0.0000 C   0  0
    0.0000    1.7286    0.0000 C   0  0
   -1.3515    1.0777    0.0000 C   0  0
   -1.6852   -0.3847    0.0000 N   0  0
   -3.1497   -0.7220    0.0000 C   0  0
   -4.1718    0.3758    0.0000 O   0  0
   -3.5900   -2.1568    0.0000 O   0  0
   -5.0525   -2.4938    0.0000 C   0  0
   -5.4926   -3.9278    0.0000 C   0  0
   -6.5144   -2.8299    0.0000 C   0  0
   -6.0747   -1.3960    0.0000 C   0  0
   -0.7500   -1.5574    0.0000 C   0  0
    0.7500   -1.5574    0.0000 C   0  0
    3.6667   -2.1252    0.0000 C   0  0
    5.1442   -2.3838    0.0000 C   0  0
    5.6565   -3.7945    0.0000 O   0  0
    4.6921   -4.9435    0.0000 C   0  0
    8.0277    1.0704    0.0000 N   0  0
    8.9864    2.2240    0.0000 C   0  0
   10.4648    1.9705    0.0000 C   0  0
   11.4241    3.1248    0.0000 C   0  0
   10.9052    4.5322    0.0000 F   0  0
   12.9024    2.8709    0.0000 F   0  0
   12.3833    4.2780    0.0000 F   0  0
   12.0186   -2.2522    0.0000 C   0  0
  1  2  2  0
  2  3  1  0
  3  4  2  0
  3  5  1  0
  5  6  1  0
  6  7  2  0
  7  8  1  0
  8  9  2  0
  9 10  1  0
 10 11  1  0
 11 12  1  0
 12 13  2  0
 13 14  1  0
 14 15  1  0
 15 16  1  0
 16 17  2  0
 17 18  1  0
 18 19  2  0
 19 20  1  0
 20 21  1  0
 21 22  1  0
 22 23  1  0
 23 24  1  0
 24 25  1  0
 25 26  2  0
 25 27  1  0
 27 28  1  0
 28 29  1  0
 28 30  1  0
 28 31  1  0
 24 32  1  0
 32 33  1  0
 33 20  1  0
 19 34  1  0
 34 35  2  0
 35 16  1  0
 35 36  1  0
 36 37  1  0
 14 38  2  0
 38 39  1  0
 39 40  2  0
 40 12  1  0
 40 41  1  0
 41 42  1  0
 41 43  1  0
 41 44  1  0
 10 45  2  0
 45  6  1  0
M  END
> <Name>
CHEMBL3699613

> <pChEMBL_Value>
8.26

$$$$
CHEMBL3699609
  SciTegic08122012322D

 41 44  0  0  0  0            999 V2000
    3.8912   -5.2570    0.0000 C   0  0
    3.8933   -3.7570    0.0000 C   0  0
    2.5951   -3.0039    0.0000 C   0  0
    1.2948   -3.7516    0.0000 O   0  0
    2.5973   -1.5031    0.0000 N   0  0
    1.2990   -0.7500    0.0000 C   0  0
    1.2990    0.7500    0.0000 C   0  0
    0.0000    1.5000    0.0000 C   0  0
   -1.2990    0.7500    0.0000 C   0  0
   -1.2990   -0.7500    0.0000 C   0  0
   -2.5972   -1.5031    0.0000 N   0  0
   -2.5951   -3.0039    0.0000 C   0  0
   -1.2935   -3.7495    0.0000 N   0  0
   -1.2883   -5.2495    0.0000 C   0  0
    0.0125   -5.9981    0.0000 N   0  0
    0.0156   -7.4989    0.0000 C   0  0
   -1.2835   -8.2490    0.0000 C   0  0
   -1.2835   -9.7490    0.0000 C   0  0
    0.0156  -10.4990    0.0000 C   0  0
    0.0156  -11.9998    0.0000 N   0  0
   -1.2823  -12.7520    0.0000 C   0  0
   -1.2799  -14.2520    0.0000 C   0  0
    0.0203  -14.9999    0.0000 N   0  0
    0.0258  -16.5007    0.0000 C   0  0
   -1.2707  -17.2550    0.0000 O   0  0
    1.3278  -17.2472    0.0000 C   0  0
    1.3333  -18.7472    0.0000 C   0  0
    1.3182  -14.2478    0.0000 C   0  0
    1.3158  -12.7478    0.0000 C   0  0
    1.3146   -9.7490    0.0000 C   0  0
    1.3146   -8.2490    0.0000 C   0  0
    2.6159   -7.5013    0.0000 O   0  0
    3.9139   -8.2532    0.0000 C   0  0
   -2.5847   -6.0040    0.0000 N   0  0
   -3.8863   -5.2585    0.0000 C   0  0
   -3.8915   -3.7585    0.0000 C   0  0
   -5.1939   -3.0126    0.0000 C   0  0
   -6.4908   -3.7663    0.0000 F   0  0
   -5.1987   -1.5126    0.0000 F   0  0
   -6.4952   -2.2666    0.0000 F   0  0
    0.0000   -1.5000    0.0000 C   0  0
  1  2  2  0
  2  3  1  0
  3  4  2  0
  3  5  1  0
  5  6  1  0
  6  7  2  0
  7  8  1  0
  8  9  2  0
  9 10  1  0
 10 11  1  0
 11 12  1  0
 12 13  2  0
 13 14  1  0
 14 15  1  0
 15 16  1  0
 16 17  2  0
 17 18  1  0
 18 19  2  0
 19 20  1  0
 20 21  1  0
 21 22  1  0
 22 23  1  0
 23 24  1  0
 24 25  2  0
 24 26  1  0
 26 27  1  0
 23 28  1  0
 28 29  1  0
 29 20  1  0
 19 30  1  0
 30 31  2  0
 31 16  1  0
 31 32  1  0
 32 33  1  0
 14 34  2  0
 34 35  1  0
 35 36  2  0
 36 12  1  0
 36 37  1  0
 37 38  1  0
 37 39  1  0
 37 40  1  0
 10 41  2  0
 41  6  1  0
M  END
> <Name>
CHEMBL3699609

> <pChEMBL_Value>
8.26

$$$$
CHEMBL3219347
  SciTegic08122012322D

 49 54  0  0  0  0            999 V2000
    9.1232   -5.7304    0.0000 C   0  0
    7.6464   -5.4679    0.0000 C   0  0
    7.1341   -4.0572    0.0000 C   0  0
    8.0995   -2.9091    0.0000 O   0  0
    5.6565   -3.7945    0.0000 N   0  0
    5.1442   -2.3838    0.0000 C   0  0
    6.1069   -1.2335    0.0000 C   0  0
    5.5920    0.1754    0.0000 C   0  0
    4.1145    0.4339    0.0000 C   0  0
    3.1484   -0.7186    0.0000 C   0  0
    1.6852   -0.3846    0.0000 N   0  0
    0.7500   -1.5574    0.0000 C   0  0
    1.4008   -2.9088    0.0000 O   0  0
   -0.7500   -1.5574    0.0000 C   0  0
   -1.4048   -2.9100    0.0000 C   0  0
   -2.9016   -3.0201    0.0000 C   0  0
   -3.5571   -4.3693    0.0000 C   0  0
   -5.0533   -4.4762    0.0000 C   0  0
   -5.8940   -3.2339    0.0000 C   0  0
   -7.3902   -3.3409    0.0000 F   0  0
   -5.2386   -1.8847    0.0000 C   0  0
   -3.7424   -1.7778    0.0000 C   0  0
   -1.6852   -0.3847    0.0000 N   0  0
   -3.1476   -0.7184    0.0000 C   0  0
   -1.3515    1.0777    0.0000 C   0  0
   -2.5242    2.0130    0.0000 O   0  0
    0.0000    1.7286    0.0000 C   0  0
   -0.1116    3.2255    0.0000 C   0  0
    1.1278    4.0705    0.0000 N   0  0
    2.4793    3.4197    0.0000 C   0  0
    3.7210    4.2626    0.0000 N   0  0
    5.0723    3.6095    0.0000 C   0  0
    5.1793    2.1132    0.0000 C   0  0
    6.5285    1.4577    0.0000 C   0  0
    7.7708    2.2984    0.0000 C   0  0
    9.1206    1.6426    0.0000 N   0  0
    9.2301    0.1465    0.0000 C   0  0
   10.5803   -0.5068    0.0000 C   0  0
   11.8212    0.3359    0.0000 N   0  0
   13.1715   -0.3175    0.0000 C   0  0
   11.7119    1.8319    0.0000 C   0  0
   10.3617    2.4852    0.0000 C   0  0
    7.6638    3.7946    0.0000 C   0  0
    6.3146    4.4501    0.0000 C   0  0
    6.2108    5.9473    0.0000 O   0  0
    7.4543    6.7862    0.0000 C   0  0
    2.5913    1.9239    0.0000 N   0  0
    1.3514    1.0777    0.0000 C   0  0
    3.6667   -2.1252    0.0000 C   0  0
  1  2  2  0
  2  3  1  0
  3  4  2  0
  3  5  1  0
  5  6  1  0
  6  7  2  0
  7  8  1  0
  8  9  2  0
  9 10  1  0
 10 11  1  0
 11 12  1  0
 12 13  2  0
 12 14  1  0
 14 15  1  0
 15 16  1  0
 16 17  2  0
 17 18  1  0
 18 19  2  0
 19 20  1  0
 19 21  1  0
 21 22  2  0
 22 16  1  0
 14 23  1  0
 23 24  1  0
 23 25  1  0
 25 26  2  0
 25 27  1  0
 27 28  2  0
 28 29  1  0
 29 30  2  0
 30 31  1  0
 31 32  1  0
 32 33  2  0
 33 34  1  0
 34 35  2  0
 35 36  1  0
 36 37  1  0
 37 38  1  0
 38 39  1  0
 39 40  1  0
 39 41  1  0
 41 42  1  0
 42 36  1  0
 35 43  1  0
 43 44  2  0
 44 32  1  0
 44 45  1  0
 45 46  1  0
 30 47  1  0
 47 48  2  0
 48 27  1  0
 48 11  1  0
 10 49  2  0
 49  6  1  0
M  END
> <Name>
CHEMBL3219347

> <pChEMBL_Value>
8.24

$$$$
CHEMBL4087538
  SciTegic08122012322D

 38 41  0  0  0  0            999 V2000
   -2.8827  -11.5495    0.0000 C   0  0
   -4.3226  -11.1290    0.0000 C   0  0
   -4.6795   -9.6712    0.0000 C   0  0
   -3.5958   -8.6342    0.0000 O   0  0
   -6.1202   -9.2506    0.0000 N   0  0
   -6.4771   -7.7928    0.0000 C   0  0
   -5.3916   -6.7576    0.0000 C   0  0
   -5.7452   -5.2998    0.0000 C   0  0
   -4.6570   -4.2663    0.0000 N   0  0
   -3.2175   -4.6910    0.0000 C   0  0
   -2.8628   -6.1485    0.0000 N   0  0
   -1.4233   -6.5700    0.0000 C   0  0
   -0.3384   -5.5341    0.0000 C   0  0
   -0.6928   -4.0817    0.0000 C   0  0
    0.3114   -2.9665    0.0000 C   0  0
    1.8032   -3.1233    0.0000 C   0  0
    2.4133   -1.7530    0.0000 N   0  0
    3.8805   -1.4410    0.0000 C   0  0
    1.2990   -0.7500    0.0000 C   0  0
    1.2990    0.7500    0.0000 C   0  0
    2.5981    1.5000    0.0000 F   0  0
    0.0000    1.5000    0.0000 C   0  0
   -1.2990    0.7500    0.0000 C   0  0
   -1.2990   -0.7500    0.0000 C   0  0
    0.0000   -1.5000    0.0000 C   0  0
   -2.1327   -3.6551    0.0000 N   0  0
   -7.1846   -4.8774    0.0000 C   0  0
   -7.5416   -3.4196    0.0000 O   0  0
   -8.9814   -2.9992    0.0000 C   0  0
   -8.2701   -5.9126    0.0000 C   0  0
   -7.9164   -7.3703    0.0000 C   0  0
   -9.0046   -8.4038    0.0000 N   0  0
   -8.6534   -9.8621    0.0000 C   0  0
  -10.4441   -7.9790    0.0000 C   0  0
  -11.5323   -9.0126    0.0000 C   0  0
  -12.9718   -8.5878    0.0000 N   0  0
  -14.0594   -9.6207    0.0000 C   0  0
  -13.3230   -7.1295    0.0000 C   0  0
  1  2  2  0
  2  3  1  0
  3  4  2  0
  3  5  1  0
  5  6  1  0
  6  7  2  0
  7  8  1  0
  8  9  1  0
  9 10  1  0
 10 11  2  0
 11 12  1  0
 12 13  2  0
 13 14  1  0
 14 15  1  0
 15 16  2  0
 16 17  1  0
 17 18  1  0
 17 19  1  0
 19 20  2  0
 20 21  1  0
 20 22  1  0
 22 23  2  0
 23 24  1  0
 24 25  2  0
 25 15  1  0
 25 19  1  0
 14 26  2  0
 26 10  1  0
  8 27  2  0
 27 28  1  0
 28 29  1  0
 27 30  1  0
 30 31  2  0
 31  6  1  0
 31 32  1  0
 32 33  1  0
 32 34  1  0
 34 35  1  0
 35 36  1  0
 36 37  1  0
 36 38  1  0
M  END
> <Name>
CHEMBL4087538

> <pChEMBL_Value>
8.22

$$$$
CHEMBL3752363
  SciTegic08122012322D

 39 43  0  0  0  0            999 V2000
    6.4757   -8.2656    0.0000 C   0  0
    5.1799   -7.5101    0.0000 C   0  0
    5.1854   -6.0093    0.0000 C   0  0
    6.4874   -5.2644    0.0000 O   0  0
    3.8888   -5.2533    0.0000 N   0  0
    3.8943   -3.7525    0.0000 C   0  0
    5.1945   -3.0045    0.0000 C   0  0
    5.1969   -1.5045    0.0000 C   0  0
    3.8991   -0.7525    0.0000 C   0  0
    2.5987   -1.5004    0.0000 C   0  0
    1.2990   -0.7500    0.0000 N   0  0
    0.0000   -1.5000    0.0000 C   0  0
    0.0000   -3.0000    0.0000 O   0  0
   -1.2990   -0.7500    0.0000 C   0  0
   -2.5981   -1.5000    0.0000 C   0  0
   -1.2990    0.7500    0.0000 C   0  0
    0.0000    1.5000    0.0000 C   0  0
    0.0000    3.0000    0.0000 C   0  0
    1.2990    3.7500    0.0000 N   0  0
    2.5981    3.0000    0.0000 C   0  0
    3.8994    3.7477    0.0000 N   0  0
    5.1981    2.9955    0.0000 C   0  0
    5.1929    1.4954    0.0000 C   0  0
    6.4894    0.7409    0.0000 C   0  0
    7.7910    1.4865    0.0000 C   0  0
    9.0881    0.7316    0.0000 N   0  0
    9.0854   -0.7685    0.0000 C   0  0
   10.3830   -1.5209    0.0000 C   0  0
   11.6835   -0.7733    0.0000 N   0  0
   12.9811   -1.5257    0.0000 C   0  0
   11.6863    0.7267    0.0000 C   0  0
   10.3886    1.4791    0.0000 C   0  0
    7.7962    2.9864    0.0000 C   0  0
    6.4997    3.7409    0.0000 C   0  0
    6.5081    5.2417    0.0000 O   0  0
    7.8108    5.9853    0.0000 C   0  0
    2.5981    1.5000    0.0000 N   0  0
    1.2990    0.7500    0.0000 C   0  0
    2.5965   -3.0004    0.0000 C   0  0
  1  2  2  0
  2  3  1  0
  3  4  2  0
  3  5  1  0
  5  6  1  0
  6  7  2  0
  7  8  1  0
  8  9  2  0
  9 10  1  0
 10 11  1  0
 11 12  1  0
 12 13  2  0
 12 14  1  0
 14 15  1  0
 14 16  2  0
 16 17  1  0
 17 18  2  0
 18 19  1  0
 19 20  2  0
 20 21  1  0
 21 22  1  0
 22 23  2  0
 23 24  1  0
 24 25  2  0
 25 26  1  0
 26 27  1  0
 27 28  1  0
 28 29  1  0
 29 30  1  0
 29 31  1  0
 31 32  1  0
 32 26  1  0
 25 33  1  0
 33 34  2  0
 34 22  1  0
 34 35  1  0
 35 36  1  0
 20 37  1  0
 37 38  2  0
 38 17  1  0
 38 11  1  0
 10 39  2  0
 39  6  1  0
M  END
> <Name>
CHEMBL3752363

> <pChEMBL_Value>
8.21

$$$$
CHEMBL3219348
  SciTegic08122012322D

 47 52  0  0  0  0            999 V2000
    9.1232   -5.7304    0.0000 C   0  0
    7.6464   -5.4679    0.0000 C   0  0
    7.1341   -4.0572    0.0000 C   0  0
    8.0995   -2.9091    0.0000 O   0  0
    5.6565   -3.7945    0.0000 N   0  0
    5.1442   -2.3838    0.0000 C   0  0
    6.1069   -1.2335    0.0000 C   0  0
    5.5920    0.1754    0.0000 C   0  0
    4.1145    0.4339    0.0000 C   0  0
    3.1484   -0.7186    0.0000 C   0  0
    1.6852   -0.3846    0.0000 N   0  0
    0.7500   -1.5574    0.0000 C   0  0
    1.4008   -2.9088    0.0000 O   0  0
   -0.7500   -1.5574    0.0000 C   0  0
   -1.6852   -0.3847    0.0000 N   0  0
   -3.1497   -0.7220    0.0000 C   0  0
   -3.5900   -2.1568    0.0000 C   0  0
   -5.0512   -2.4957    0.0000 C   0  0
   -5.4884   -3.9306    0.0000 C   0  0
   -4.4644   -5.0267    0.0000 C   0  0
   -3.0032   -4.6878    0.0000 C   0  0
   -2.5660   -3.2530    0.0000 C   0  0
   -1.3515    1.0777    0.0000 C   0  0
   -2.5242    2.0130    0.0000 O   0  0
    0.0000    1.7286    0.0000 C   0  0
   -0.1116    3.2255    0.0000 C   0  0
    1.1278    4.0705    0.0000 N   0  0
    2.4793    3.4197    0.0000 C   0  0
    3.7210    4.2626    0.0000 N   0  0
    5.0723    3.6095    0.0000 C   0  0
    5.1793    2.1132    0.0000 C   0  0
    6.5285    1.4577    0.0000 C   0  0
    7.7708    2.2984    0.0000 C   0  0
    9.1206    1.6426    0.0000 N   0  0
    9.2301    0.1465    0.0000 C   0  0
   10.5803   -0.5068    0.0000 C   0  0
   11.8212    0.3359    0.0000 N   0  0
   13.1715   -0.3175    0.0000 C   0  0
   11.7119    1.8319    0.0000 C   0  0
   10.3617    2.4852    0.0000 C   0  0
    7.6638    3.7946    0.0000 C   0  0
    6.3146    4.4501    0.0000 C   0  0
    6.2108    5.9473    0.0000 O   0  0
    7.4543    6.7862    0.0000 C   0  0
    2.5913    1.9239    0.0000 N   0  0
    1.3514    1.0777    0.0000 C   0  0
    3.6667   -2.1252    0.0000 C   0  0
  1  2  2  0
  2  3  1  0
  3  4  2  0
  3  5  1  0
  5  6  1  0
  6  7  2  0
  7  8  1  0
  8  9  2  0
  9 10  1  0
 10 11  1  0
 11 12  1  0
 12 13  2  0
 12 14  1  0
 14 15  1  0
 15 16  1  0
 16 17  1  0
 17 18  2  0
 18 19  1  0
 19 20  2  0
 20 21  1  0
 21 22  2  0
 22 17  1  0
 15 23  1  0
 23 24  2  0
 23 25  1  0
 25 26  2  0
 26 27  1  0
 27 28  2  0
 28 29  1  0
 29 30  1  0
 30 31  2  0
 31 32  1  0
 32 33  2  0
 33 34  1  0
 34 35  1  0
 35 36  1  0
 36 37  1  0
 37 38  1  0
 37 39  1  0
 39 40  1  0
 40 34  1  0
 33 41  1  0
 41 42  2  0
 42 30  1  0
 42 43  1  0
 43 44  1  0
 28 45  1  0
 45 46  2  0
 46 25  1  0
 46 11  1  0
 10 47  2  0
 47  6  1  0
M  END
> <Name>
CHEMBL3219348

> <pChEMBL_Value>
8.20

$$$$
CHEMBL1981725
  SciTegic08122012322D

 46 52  0  0  0  0            999 V2000
   -6.0067    6.9776    0.0000 C   0  0
   -7.0983    5.9487    0.0000 C   0  0
   -6.7537    4.4879    0.0000 N   0  0
   -7.8438    3.4575    0.0000 C   0  0
   -7.4964    1.9983    0.0000 C   0  0
   -6.0590    1.5694    0.0000 N   0  0
   -5.7092    0.1100    0.0000 C   0  0
   -6.7976   -0.9222    0.0000 C   0  0
   -6.4479   -2.3809    0.0000 C   0  0
   -5.0098   -2.8075    0.0000 C   0  0
   -4.6570   -4.2663    0.0000 N   0  0
   -3.2175   -4.6910    0.0000 C   0  0
   -2.8628   -6.1485    0.0000 N   0  0
   -1.4233   -6.5700    0.0000 C   0  0
   -0.3384   -5.5341    0.0000 C   0  0
   -0.6928   -4.0817    0.0000 C   0  0
    0.3114   -2.9665    0.0000 C   0  0
    1.8032   -3.1233    0.0000 C   0  0
    2.5536   -4.4230    0.0000 C   0  0
    1.9048   -5.7699    0.0000 C   0  0
    2.7505   -7.0088    0.0000 C   0  0
    4.2462   -6.8959    0.0000 C   0  0
    4.8963   -5.5441    0.0000 C   0  0
    6.3927   -5.4281    0.0000 C   0  0
    7.2405   -6.6656    0.0000 O   0  0
    7.0412   -4.0747    0.0000 N   0  0
    8.5376   -3.9587    0.0000 C   0  0
    9.3833   -5.1976    0.0000 C   0  0
   10.8791   -5.0847    0.0000 C   0  0
   11.5292   -3.7329    0.0000 C   0  0
   10.6835   -2.4940    0.0000 C   0  0
    9.1878   -2.6069    0.0000 C   0  0
    8.3421   -1.3679    0.0000 F   0  0
    4.0507   -4.3052    0.0000 C   0  0
    2.4133   -1.7530    0.0000 N   0  0
    1.2990   -0.7500    0.0000 C   0  0
    1.2990    0.7500    0.0000 C   0  0
    0.0000    1.5000    0.0000 C   0  0
   -1.2990    0.7500    0.0000 C   0  0
   -1.2990   -0.7500    0.0000 C   0  0
    0.0000   -1.5000    0.0000 N   0  0
   -2.1327   -3.6551    0.0000 N   0  0
   -3.9214   -1.7752    0.0000 C   0  0
   -4.2711   -0.3166    0.0000 C   0  0
   -4.9690    2.5999    0.0000 C   0  0
   -5.3163    4.0591    0.0000 C   0  0
  1  2  1  0
  2  3  1  0
  3  4  1  0
  4  5  1  0
  5  6  1  0
  6  7  1  0
  7  8  2  0
  8  9  1  0
  9 10  2  0
 10 11  1  0
 11 12  1  0
 12 13  2  0
 13 14  1  0
 14 15  2  0
 15 16  1  0
 16 17  1  0
 17 18  2  0
 18 19  1  0
 19 20  2  0
 20 21  1  0
 21 22  2  0
 22 23  1  0
 23 24  1  0
 24 25  2  0
 24 26  1  0
 26 27  1  0
 27 28  2  0
 28 29  1  0
 29 30  2  0
 30 31  1  0
 31 32  2  0
 32 27  1  0
 32 33  1  0
 23 34  2  0
 34 19  1  0
 18 35  1  0
 35 36  2  0
 36 37  1  0
 37 38  2  0
 38 39  1  0
 39 40  2  0
 40 41  1  0
 41 17  1  0
 41 36  1  0
 16 42  2  0
 42 12  1  0
 10 43  1  0
 43 44  2  0
 44  7  1  0
  6 45  1  0
 45 46  1  0
 46  3  1  0
M  END
> <Name>
CHEMBL1981725

> <pChEMBL_Value>
8.20

$$$$
CHEMBL4125940
  SciTegic08122012322D

 42 46  0  0  0  0            999 V2000
    6.4757   -8.2656    0.0000 C   0  0
    5.1799   -7.5101    0.0000 C   0  0
    5.1854   -6.0093    0.0000 C   0  0
    6.4874   -5.2644    0.0000 O   0  0
    3.8888   -5.2533    0.0000 N   0  0
    3.8943   -3.7525    0.0000 C   0  0
    5.1945   -3.0045    0.0000 C   0  0
    5.1969   -1.5045    0.0000 C   0  0
    3.8991   -0.7525    0.0000 C   0  0
    2.5987   -1.5004    0.0000 C   0  0
    1.2990   -0.7500    0.0000 N   0  0
    0.0000   -1.5000    0.0000 C   0  0
    0.0000   -3.0000    0.0000 O   0  0
   -1.2990   -0.7500    0.0000 N   0  0
   -2.6003   -1.4977    0.0000 C   0  0
   -3.8983   -0.7459    0.0000 C   0  0
   -2.6030   -2.9977    0.0000 C   0  0
   -1.2990    0.7500    0.0000 C   0  0
   -2.5981    1.5000    0.0000 O   0  0
    0.0000    1.5000    0.0000 C   0  0
    0.0000    3.0000    0.0000 C   0  0
    1.2990    3.7500    0.0000 N   0  0
    2.5981    3.0000    0.0000 C   0  0
    3.8994    3.7477    0.0000 N   0  0
    3.9034    5.2486    0.0000 C   0  0
    5.2029    5.9978    0.0000 C   0  0
    5.2039    7.4978    0.0000 C   0  0
    3.9053    8.2487    0.0000 C   0  0
    3.9063    9.7494    0.0000 N   0  0
    5.2047   10.5007    0.0000 C   0  0
    5.2033   12.0007    0.0000 C   0  0
    3.9035   12.7495    0.0000 N   0  0
    3.9021   14.2495    0.0000 C   0  0
    2.6052   11.9983    0.0000 C   0  0
    2.6066   10.4983    0.0000 C   0  0
    2.6058    7.4995    0.0000 C   0  0
    1.3050    8.2481    0.0000 O   0  0
    0.0065    7.4971    0.0000 C   0  0
    2.6048    5.9995    0.0000 C   0  0
    2.5981    1.5000    0.0000 N   0  0
    1.2990    0.7500    0.0000 C   0  0
    2.5965   -3.0004    0.0000 C   0  0
  1  2  2  0
  2  3  1  0
  3  4  2  0
  3  5  1  0
  5  6  1  0
  6  7  2  0
  7  8  1  0
  8  9  2  0
  9 10  1  0
 10 11  1  0
 11 12  1  0
 12 13  2  0
 12 14  1  0
 14 15  1  0
 15 16  1  0
 15 17  1  0
 14 18  1  0
 18 19  2  0
 18 20  1  0
 20 21  2  0
 21 22  1  0
 22 23  2  0
 23 24  1  0
 24 25  1  0
 25 26  2  0
 26 27  1  0
 27 28  2  0
 28 29  1  0
 29 30  1  0
 30 31  1  0
 31 32  1  0
 32 33  1  0
 32 34  1  0
 34 35  1  0
 35 29  1  0
 28 36  1  0
 36 37  1  0
 37 38  1  0
 36 39  2  0
 39 25  1  0
 23 40  1  0
 40 41  2  0
 41 20  1  0
 41 11  1  0
 10 42  2  0
 42  6  1  0
M  END
> <Name>
CHEMBL4125940

> <pChEMBL_Value>
8.17

$$$$
CHEMBL3219132
  SciTegic08122012322D

 46 51  0  0  0  0            999 V2000
    9.1232   -5.7304    0.0000 C   0  0
    7.6464   -5.4679    0.0000 C   0  0
    7.1341   -4.0572    0.0000 C   0  0
    8.0995   -2.9091    0.0000 O   0  0
    5.6565   -3.7945    0.0000 N   0  0
    5.1442   -2.3838    0.0000 C   0  0
    6.1069   -1.2335    0.0000 C   0  0
    5.5920    0.1754    0.0000 C   0  0
    4.1145    0.4339    0.0000 C   0  0
    3.1484   -0.7186    0.0000 C   0  0
    1.6852   -0.3846    0.0000 N   0  0
    0.7500   -1.5574    0.0000 C   0  0
    1.4008   -2.9088    0.0000 O   0  0
   -0.7500   -1.5574    0.0000 C   0  0
   -1.6852   -0.3847    0.0000 N   0  0
   -3.1484   -0.7186    0.0000 C   0  0
   -3.5187   -2.1762    0.0000 C   0  0
   -4.9622   -2.5843    0.0000 C   0  0
   -6.0373   -1.5384    0.0000 C   0  0
   -5.6691   -0.0843    0.0000 C   0  0
   -4.2257    0.3239    0.0000 C   0  0
   -1.3515    1.0777    0.0000 C   0  0
   -2.5242    2.0130    0.0000 O   0  0
    0.0000    1.7286    0.0000 C   0  0
   -0.1116    3.2255    0.0000 C   0  0
    1.1278    4.0705    0.0000 N   0  0
    2.4793    3.4197    0.0000 C   0  0
    3.7210    4.2626    0.0000 N   0  0
    5.0723    3.6095    0.0000 C   0  0
    5.1793    2.1132    0.0000 C   0  0
    6.5285    1.4577    0.0000 C   0  0
    7.7708    2.2984    0.0000 C   0  0
    9.1206    1.6426    0.0000 N   0  0
    9.2301    0.1465    0.0000 C   0  0
   10.5803   -0.5068    0.0000 C   0  0
   11.8212    0.3359    0.0000 N   0  0
   13.1715   -0.3175    0.0000 C   0  0
   11.7119    1.8319    0.0000 C   0  0
   10.3617    2.4852    0.0000 C   0  0
    7.6638    3.7946    0.0000 C   0  0
    6.3146    4.4501    0.0000 C   0  0
    6.2108    5.9473    0.0000 O   0  0
    7.4543    6.7862    0.0000 C   0  0
    2.5913    1.9239    0.0000 N   0  0
    1.3514    1.0777    0.0000 C   0  0
    3.6667   -2.1252    0.0000 C   0  0
  1  2  2  0
  2  3  1  0
  3  4  2  0
  3  5  1  0
  5  6  1  0
  6  7  2  0
  7  8  1  0
  8  9  2  0
  9 10  1  0
 10 11  1  0
 11 12  1  0
 12 13  2  0
 12 14  1  0
 14 15  1  0
 15 16  1  0
 16 17  2  0
 17 18  1  0
 18 19  2  0
 19 20  1  0
 20 21  2  0
 21 16  1  0
 15 22  1  0
 22 23  2  0
 22 24  1  0
 24 25  2  0
 25 26  1  0
 26 27  2  0
 27 28  1  0
 28 29  1  0
 29 30  2  0
 30 31  1  0
 31 32  2  0
 32 33  1  0
 33 34  1  0
 34 35  1  0
 35 36  1  0
 36 37  1  0
 36 38  1  0
 38 39  1  0
 39 33  1  0
 32 40  1  0
 40 41  2  0
 41 29  1  0
 41 42  1  0
 42 43  1  0
 27 44  1  0
 44 45  2  0
 45 24  1  0
 45 11  1  0
 10 46  2  0
 46  6  1  0
M  END
> <Name>
CHEMBL3219132

> <pChEMBL_Value>
8.16

$$$$
CHEMBL2029431
  SciTegic08122012322D

 41 45  0  0  0  0            999 V2000
    6.4757   -8.2656    0.0000 C   0  0
    5.1799   -7.5101    0.0000 C   0  0
    5.1854   -6.0093    0.0000 C   0  0
    6.4874   -5.2644    0.0000 O   0  0
    3.8888   -5.2533    0.0000 N   0  0
    3.8943   -3.7525    0.0000 C   0  0
    5.1945   -3.0045    0.0000 C   0  0
    5.1969   -1.5045    0.0000 C   0  0
    3.8991   -0.7525    0.0000 C   0  0
    2.5987   -1.5004    0.0000 C   0  0
    1.2990   -0.7500    0.0000 N   0  0
    0.0000   -1.5000    0.0000 C   0  0
    0.0000   -3.0000    0.0000 O   0  0
   -1.2990   -0.7500    0.0000 N   0  0
   -2.5981   -1.5000    0.0000 C   0  0
   -1.2990    0.7500    0.0000 C   0  0
    0.0000    1.5000    0.0000 C   0  0
    0.0000    3.0000    0.0000 C   0  0
    1.2990    3.7500    0.0000 N   0  0
    2.5981    3.0000    0.0000 C   0  0
    3.8994    3.7477    0.0000 N   0  0
    5.1981    2.9955    0.0000 C   0  0
    5.1929    1.4954    0.0000 C   0  0
    6.4894    0.7409    0.0000 C   0  0
    7.7910    1.4865    0.0000 C   0  0
    9.0881    0.7316    0.0000 N   0  0
    9.0854   -0.7685    0.0000 C   0  0
   10.3830   -1.5209    0.0000 C   0  0
   11.6835   -0.7733    0.0000 N   0  0
   12.9811   -1.5257    0.0000 C   0  0
   11.6863    0.7267    0.0000 C   0  0
   10.3886    1.4791    0.0000 C   0  0
    7.7962    2.9864    0.0000 C   0  0
    6.4997    3.7409    0.0000 C   0  0
    6.5081    5.2417    0.0000 O   0  0
    7.8115    5.9858    0.0000 C   0  0
    7.8198    7.4857    0.0000 C   0  0
    9.1066    5.2290    0.0000 C   0  0
    2.5981    1.5000    0.0000 N   0  0
    1.2990    0.7500    0.0000 C   0  0
    2.5965   -3.0004    0.0000 C   0  0
  1  2  2  0
  2  3  1  0
  3  4  2  0
  3  5  1  0
  5  6  1  0
  6  7  2  0
  7  8  1  0
  8  9  2  0
  9 10  1  0
 10 11  1  0
 11 12  1  0
 12 13  2  0
 12 14  1  0
 14 15  1  0
 14 16  1  0
 16 17  1  0
 17 18  2  0
 18 19  1  0
 19 20  2  0
 20 21  1  0
 21 22  1  0
 22 23  2  0
 23 24  1  0
 24 25  2  0
 25 26  1  0
 26 27  1  0
 27 28  1  0
 28 29  1  0
 29 30  1  0
 29 31  1  0
 31 32  1  0
 32 26  1  0
 25 33  1  0
 33 34  2  0
 34 22  1  0
 34 35  1  0
 35 36  1  0
 36 37  1  0
 36 38  1  0
 20 39  1  0
 39 40  2  0
 40 17  1  0
 40 11  1  0
 10 41  2  0
 41  6  1  0
M  END
> <Name>
CHEMBL2029431

> <pChEMBL_Value>
8.05

$$$$
CHEMBL3219125
  SciTegic08122012322D

 41 45  0  0  0  0            999 V2000
    9.1232   -5.7304    0.0000 C   0  0
    7.6464   -5.4679    0.0000 C   0  0
    7.1341   -4.0572    0.0000 C   0  0
    8.0995   -2.9091    0.0000 O   0  0
    5.6565   -3.7945    0.0000 N   0  0
    5.1442   -2.3838    0.0000 C   0  0
    6.1069   -1.2335    0.0000 C   0  0
    5.5920    0.1754    0.0000 C   0  0
    4.1145    0.4339    0.0000 C   0  0
    3.1484   -0.7186    0.0000 C   0  0
    1.6852   -0.3846    0.0000 N   0  0
    0.7500   -1.5574    0.0000 C   0  0
    1.4008   -2.9088    0.0000 O   0  0
   -0.7500   -1.5574    0.0000 C   0  0
   -1.6852   -0.3847    0.0000 N   0  0
   -3.1476   -0.7184    0.0000 C   0  0
   -1.3515    1.0777    0.0000 C   0  0
   -2.5242    2.0130    0.0000 O   0  0
    0.0000    1.7286    0.0000 C   0  0
   -0.1116    3.2255    0.0000 C   0  0
    1.1278    4.0705    0.0000 N   0  0
    2.4793    3.4197    0.0000 C   0  0
    3.7210    4.2626    0.0000 N   0  0
    5.0723    3.6095    0.0000 C   0  0
    5.1793    2.1132    0.0000 C   0  0
    6.5285    1.4577    0.0000 C   0  0
    7.7708    2.2984    0.0000 C   0  0
    9.1206    1.6426    0.0000 N   0  0
    9.2301    0.1465    0.0000 C   0  0
   10.5803   -0.5068    0.0000 C   0  0
   11.8212    0.3359    0.0000 N   0  0
   13.1715   -0.3175    0.0000 C   0  0
   11.7119    1.8319    0.0000 C   0  0
   10.3617    2.4852    0.0000 C   0  0
    7.6638    3.7946    0.0000 C   0  0
    6.3146    4.4501    0.0000 C   0  0
    6.2108    5.9473    0.0000 O   0  0
    7.4543    6.7862    0.0000 C   0  0
    2.5913    1.9239    0.0000 N   0  0
    1.3514    1.0777    0.0000 C   0  0
    3.6667   -2.1252    0.0000 C   0  0
  1  2  2  0
  2  3  1  0
  3  4  2  0
  3  5  1  0
  5  6  1  0
  6  7  2  0
  7  8  1  0
  8  9  2  0
  9 10  1  0
 10 11  1  0
 11 12  1  0
 12 13  2  0
 12 14  1  0
 14 15  1  0
 15 16  1  0
 15 17  1  0
 17 18  2  0
 17 19  1  0
 19 20  2  0
 20 21  1  0
 21 22  2  0
 22 23  1  0
 23 24  1  0
 24 25  2  0
 25 26  1  0
 26 27  2  0
 27 28  1  0
 28 29  1  0
 29 30  1  0
 30 31  1  0
 31 32  1  0
 31 33  1  0
 33 34  1  0
 34 28  1  0
 27 35  1  0
 35 36  2  0
 36 24  1  0
 36 37  1  0
 37 38  1  0
 22 39  1  0
 39 40  2  0
 40 19  1  0
 40 11  1  0
 10 41  2  0
 41  6  1  0
M  END
> <Name>
CHEMBL3219125

> <pChEMBL_Value>
8.04

$$$$
CHEMBL3219130
  SciTegic08122012322D

 45 49  0  0  0  0            999 V2000
    9.1232   -5.7304    0.0000 C   0  0
    7.6464   -5.4679    0.0000 C   0  0
    7.1341   -4.0572    0.0000 C   0  0
    8.0995   -2.9091    0.0000 O   0  0
    5.6565   -3.7945    0.0000 N   0  0
    5.1442   -2.3838    0.0000 C   0  0
    6.1069   -1.2335    0.0000 C   0  0
    5.5920    0.1754    0.0000 C   0  0
    4.1145    0.4339    0.0000 C   0  0
    3.1484   -0.7186    0.0000 C   0  0
    1.6852   -0.3846    0.0000 N   0  0
    0.7500   -1.5574    0.0000 C   0  0
    1.4008   -2.9088    0.0000 O   0  0
   -0.7500   -1.5574    0.0000 C   0  0
   -1.4048   -2.9100    0.0000 C   0  0
   -0.5620   -4.1508    0.0000 C   0  0
   -2.9016   -3.0201    0.0000 C   0  0
   -3.5552   -4.3702    0.0000 C   0  0
   -1.6852   -0.3847    0.0000 N   0  0
   -3.1476   -0.7184    0.0000 C   0  0
   -1.3515    1.0777    0.0000 C   0  0
   -2.5242    2.0130    0.0000 O   0  0
    0.0000    1.7286    0.0000 C   0  0
   -0.1116    3.2255    0.0000 C   0  0
    1.1278    4.0705    0.0000 N   0  0
    2.4793    3.4197    0.0000 C   0  0
    3.7210    4.2626    0.0000 N   0  0
    5.0723    3.6095    0.0000 C   0  0
    5.1793    2.1132    0.0000 C   0  0
    6.5285    1.4577    0.0000 C   0  0
    7.7708    2.2984    0.0000 C   0  0
    9.1206    1.6426    0.0000 N   0  0
    9.2301    0.1465    0.0000 C   0  0
   10.5803   -0.5068    0.0000 C   0  0
   11.8212    0.3359    0.0000 N   0  0
   13.1715   -0.3175    0.0000 C   0  0
   11.7119    1.8319    0.0000 C   0  0
   10.3617    2.4852    0.0000 C   0  0
    7.6638    3.7946    0.0000 C   0  0
    6.3146    4.4501    0.0000 C   0  0
    6.2108    5.9473    0.0000 O   0  0
    7.4543    6.7862    0.0000 C   0  0
    2.5913    1.9239    0.0000 N   0  0
    1.3514    1.0777    0.0000 C   0  0
    3.6667   -2.1252    0.0000 C   0  0
  1  2  2  0
  2  3  1  0
  3  4  2  0
  3  5  1  0
  5  6  1  0
  6  7  2  0
  7  8  1  0
  8  9  2  0
  9 10  1  0
 10 11  1  0
 11 12  1  0
 12 13  2  0
 12 14  1  0
 14 15  1  0
 15 16  1  0
 15 17  1  0
 17 18  1  0
 14 19  1  0
 19 20  1  0
 19 21  1  0
 21 22  2  0
 21 23  1  0
 23 24  2  0
 24 25  1  0
 25 26  2  0
 26 27  1  0
 27 28  1  0
 28 29  2  0
 29 30  1  0
 30 31  2  0
 31 32  1  0
 32 33  1  0
 33 34  1  0
 34 35  1  0
 35 36  1  0
 35 37  1  0
 37 38  1  0
 38 32  1  0
 31 39  1  0
 39 40  2  0
 40 28  1  0
 40 41  1  0
 41 42  1  0
 26 43  1  0
 43 44  2  0
 44 23  1  0
 44 11  1  0
 10 45  2  0
 45  6  1  0
M  END
> <Name>
CHEMBL3219130

> <pChEMBL_Value>
7.99

$$$$
CHEMBL4080008
  SciTegic08122012322D

 40 45  0  0  0  0            999 V2000
    0.4248    2.2256    0.0000 C   0  0
    1.0683    3.5805    0.0000 C   0  0
    2.5642    3.7017    0.0000 C   0  0
    3.4163    2.4672    0.0000 O   0  0
    3.2081    5.0574    0.0000 N   0  0
    4.7041    5.1786    0.0000 C   0  0
    5.5540    3.9426    0.0000 C   0  0
    7.0494    4.0606    0.0000 C   0  0
    7.8972    2.8222    0.0000 N   0  0
    9.3937    2.9363    0.0000 C   0  0
   10.2429    1.6998    0.0000 N   0  0
   11.7383    1.8169    0.0000 C   0  0
   12.3846    3.1706    0.0000 C   0  0
   11.5375    4.4025    0.0000 C   0  0
   12.0803    5.8016    0.0000 C   0  0
   13.5306    6.1846    0.0000 C   0  0
   13.6142    7.6815    0.0000 N   0  0
   12.2158    8.2241    0.0000 C   0  0
   11.9864    9.7064    0.0000 C   0  0
   10.4754   10.0436    0.0000 C   0  0
    9.4109    8.9868    0.0000 C   0  0
    9.7939    7.5365    0.0000 C   0  0
   11.2679    7.0625    0.0000 C   0  0
   13.1555   10.6462    0.0000 C   0  0
   14.5540   10.1036    0.0000 C   0  0
   14.7833    8.6213    0.0000 C   0  0
   10.0400    4.2899    0.0000 N   0  0
    7.6948    5.4147    0.0000 C   0  0
    9.1907    5.5359    0.0000 O   0  0
    9.8342    6.8909    0.0000 C   0  0
    6.8449    6.6507    0.0000 C   0  0
    5.3495    6.5326    0.0000 C   0  0
    4.4992    7.7692    0.0000 N   0  0
    4.7992    9.2021    0.0000 C   0  0
    3.3238    9.4727    0.0000 C   0  0
    2.4723   10.7013    0.0000 C   0  0
    0.9765   10.5786    0.0000 N   0  0
    0.1221   11.8114    0.0000 C   0  0
    0.3357    9.2224    0.0000 C   0  0
    3.0531    7.9974    0.0000 C   0  0
  1  2  2  0
  2  3  1  0
  3  4  2  0
  3  5  1  0
  5  6  1  0
  6  7  2  0
  7  8  1  0
  8  9  1  0
  9 10  1  0
 10 11  2  0
 11 12  1  0
 12 13  2  0
 13 14  1  0
 14 15  1  0
 15 16  2  0
 16 17  1  0
 17 18  1  0
 18 19  2  0
 19 20  1  0
 20 21  2  0
 21 22  1  0
 22 23  2  0
 23 15  1  0
 23 18  1  0
 19 24  1  0
 24 25  1  0
 25 26  1  0
 26 17  1  0
 14 27  2  0
 27 10  1  0
  8 28  2  0
 28 29  1  0
 29 30  1  0
 28 31  1  0
 31 32  2  0
 32  6  1  0
 32 33  1  0
 33 34  1  0
 34 35  1  0
 35 36  1  0
 36 37  1  0
 37 38  1  0
 37 39  1  0
 35 40  1  0
 40 33  1  0
M  END
> <Name>
CHEMBL4080008

> <pChEMBL_Value>
7.94

$$$$
CHEMBL4229010
  SciTegic08122012322D

 35 37  0  0  0  0            999 V2000
    6.4983   -0.7627    0.0000 C   0  0
    5.1972   -1.5092    0.0000 C   0  0
    3.8990   -0.7562    0.0000 C   0  0
    3.9026    0.7438    0.0000 O   0  0
    2.5973   -1.5031    0.0000 N   0  0
    1.2990   -0.7500    0.0000 C   0  0
    1.2990    0.7500    0.0000 C   0  0
    0.0000    1.5000    0.0000 C   0  0
   -1.2990    0.7500    0.0000 C   0  0
   -1.2990   -0.7500    0.0000 C   0  0
   -2.5972   -1.5031    0.0000 N   0  0
   -2.5951   -3.0039    0.0000 C   0  0
   -1.2948   -3.7517    0.0000 O   0  0
   -3.8933   -3.7570    0.0000 N   0  0
   -3.8912   -5.2578    0.0000 C   0  0
   -5.1876   -6.0124    0.0000 C   0  0
   -5.1824   -7.5124    0.0000 C   0  0
   -3.8808   -8.2579    0.0000 N   0  0
   -2.5843   -7.5034    0.0000 C   0  0
   -1.2804   -8.2467    0.0000 N   0  0
    0.0156   -7.4899    0.0000 C   0  0
    0.0053   -5.9899    0.0000 C   0  0
    1.2991   -5.2309    0.0000 C   0  0
    2.6033   -5.9719    0.0000 C   0  0
    3.8994   -5.2152    0.0000 N   0  0
    5.2033   -5.9584    0.0000 C   0  0
    6.4987   -5.2021    0.0000 C   0  0
    3.8948   -3.7143    0.0000 C   0  0
    5.1910   -2.9595    0.0000 C   0  0
    2.6137   -7.4719    0.0000 C   0  0
    1.3199   -8.2308    0.0000 C   0  0
    1.3334   -9.7316    0.0000 O   0  0
    2.6387  -10.4707    0.0000 C   0  0
   -2.5895   -6.0034    0.0000 N   0  0
    0.0000   -1.5000    0.0000 C   0  0
  1  2  2  0
  2  3  1  0
  3  4  2  0
  3  5  1  0
  5  6  1  0
  6  7  2  0
  7  8  1  0
  8  9  2  0
  9 10  1  0
 10 11  1  0
 11 12  1  0
 12 13  2  0
 12 14  1  0
 14 15  1  0
 15 16  2  0
 16 17  1  0
 17 18  2  0
 18 19  1  0
 19 20  1  0
 20 21  1  0
 21 22  2  0
 22 23  1  0
 23 24  2  0
 24 25  1  0
 25 26  1  0
 26 27  1  0
 25 28  1  0
 28 29  1  0
 24 30  1  0
 30 31  2  0
 31 21  1  0
 31 32  1  0
 32 33  1  0
 19 34  2  0
 34 15  1  0
 10 35  2  0
 35  6  1  0
M  END
> <Name>
CHEMBL4229010

> <pChEMBL_Value>
7.92

$$$$
CHEMBL4097141
  SciTegic08122012322D

 39 44  0  0  0  0            999 V2000
    0.4248    2.2256    0.0000 C   0  0
    1.0683    3.5805    0.0000 C   0  0
    2.5642    3.7017    0.0000 C   0  0
    3.4163    2.4672    0.0000 O   0  0
    3.2081    5.0574    0.0000 N   0  0
    4.7041    5.1786    0.0000 C   0  0
    5.5540    3.9426    0.0000 C   0  0
    7.0494    4.0606    0.0000 C   0  0
    7.8972    2.8222    0.0000 N   0  0
    9.3937    2.9363    0.0000 C   0  0
   10.2429    1.6998    0.0000 N   0  0
   11.7383    1.8169    0.0000 C   0  0
   12.3846    3.1706    0.0000 C   0  0
   11.5375    4.4025    0.0000 C   0  0
   12.0803    5.8016    0.0000 C   0  0
   13.5306    6.1846    0.0000 C   0  0
   13.6142    7.6815    0.0000 N   0  0
   12.2158    8.2241    0.0000 C   0  0
   11.9864    9.7064    0.0000 C   0  0
   10.4754   10.0436    0.0000 C   0  0
    9.4109    8.9868    0.0000 C   0  0
    9.7939    7.5365    0.0000 C   0  0
   11.2679    7.0625    0.0000 C   0  0
   13.1555   10.6462    0.0000 C   0  0
   14.5540   10.1036    0.0000 C   0  0
   14.7833    8.6213    0.0000 C   0  0
   10.0400    4.2899    0.0000 N   0  0
    7.6948    5.4147    0.0000 C   0  0
    9.1907    5.5359    0.0000 O   0  0
    9.8342    6.8909    0.0000 C   0  0
    6.8449    6.6507    0.0000 C   0  0
    5.3495    6.5326    0.0000 C   0  0
    4.4992    7.7692    0.0000 N   0  0
    4.7992    9.2021    0.0000 C   0  0
    3.3238    9.4727    0.0000 C   0  0
    2.4723   10.7013    0.0000 N   0  0
    0.9774   10.5787    0.0000 C   0  0
    3.1132   12.0575    0.0000 C   0  0
    3.0531    7.9974    0.0000 C   0  0
  1  2  2  0
  2  3  1  0
  3  4  2  0
  3  5  1  0
  5  6  1  0
  6  7  2  0
  7  8  1  0
  8  9  1  0
  9 10  1  0
 10 11  2  0
 11 12  1  0
 12 13  2  0
 13 14  1  0
 14 15  1  0
 15 16  2  0
 16 17  1  0
 17 18  1  0
 18 19  2  0
 19 20  1  0
 20 21  2  0
 21 22  1  0
 22 23  2  0
 23 15  1  0
 23 18  1  0
 19 24  1  0
 24 25  1  0
 25 26  1  0
 26 17  1  0
 14 27  2  0
 27 10  1  0
  8 28  2  0
 28 29  1  0
 29 30  1  0
 28 31  1  0
 31 32  2  0
 32  6  1  0
 32 33  1  0
 33 34  1  0
 34 35  1  0
 35 36  1  0
 36 37  1  0
 36 38  1  0
 35 39  1  0
 39 33  1  0
M  END
> <Name>
CHEMBL4097141

> <pChEMBL_Value>
7.87

$$$$
CHEMBL4129607
  SciTegic08122012322D

 48 53  0  0  0  0            999 V2000
    6.4757   -8.2656    0.0000 C   0  0
    5.1799   -7.5101    0.0000 C   0  0
    5.1854   -6.0093    0.0000 C   0  0
    6.4874   -5.2644    0.0000 O   0  0
    3.8888   -5.2533    0.0000 N   0  0
    3.8943   -3.7525    0.0000 C   0  0
    5.1945   -3.0045    0.0000 C   0  0
    5.1969   -1.5045    0.0000 C   0  0
    3.8991   -0.7525    0.0000 C   0  0
    2.5987   -1.5004    0.0000 C   0  0
    1.2990   -0.7500    0.0000 N   0  0
    0.0000   -1.5000    0.0000 C   0  0
    0.0000   -3.0000    0.0000 O   0  0
   -1.2990   -0.7500    0.0000 N   0  0
   -2.6003   -1.4977    0.0000 C   0  0
   -3.8983   -0.7459    0.0000 C   0  0
   -2.6030   -2.9977    0.0000 C   0  0
   -1.2990    0.7500    0.0000 C   0  0
   -2.5981    1.5000    0.0000 O   0  0
    0.0000    1.5000    0.0000 C   0  0
    0.0000    3.0000    0.0000 C   0  0
    1.2990    3.7500    0.0000 N   0  0
    2.5981    3.0000    0.0000 C   0  0
    3.8994    3.7477    0.0000 N   0  0
    5.1981    2.9955    0.0000 C   0  0
    5.1929    1.4954    0.0000 C   0  0
    6.4894    0.7409    0.0000 C   0  0
    7.7910    1.4865    0.0000 C   0  0
    9.0881    0.7316    0.0000 N   0  0
    9.0854   -0.7685    0.0000 C   0  0
   10.3830   -1.5209    0.0000 C   0  0
   11.6835   -0.7733    0.0000 C   0  0
   12.9817   -1.5261    0.0000 N   0  0
   12.9814   -3.0262    0.0000 C   0  0
   14.2803   -3.7765    0.0000 C   0  0
   15.5795   -3.0269    0.0000 N   0  0
   16.8783   -3.7773    0.0000 C   0  0
   15.5799   -1.5269    0.0000 C   0  0
   14.2811   -0.7765    0.0000 C   0  0
   11.6863    0.7267    0.0000 C   0  0
   10.3886    1.4791    0.0000 C   0  0
    7.7962    2.9864    0.0000 C   0  0
    6.4997    3.7409    0.0000 C   0  0
    6.5081    5.2417    0.0000 O   0  0
    7.8108    5.9853    0.0000 C   0  0
    2.5981    1.5000    0.0000 N   0  0
    1.2990    0.7500    0.0000 C   0  0
    2.5965   -3.0004    0.0000 C   0  0
  1  2  2  0
  2  3  1  0
  3  4  2  0
  3  5  1  0
  5  6  1  0
  6  7  2  0
  7  8  1  0
  8  9  2  0
  9 10  1  0
 10 11  1  0
 11 12  1  0
 12 13  2  0
 12 14  1  0
 14 15  1  0
 15 16  1  0
 15 17  1  0
 14 18  1  0
 18 19  2  0
 18 20  1  0
 20 21  2  0
 21 22  1  0
 22 23  2  0
 23 24  1  0
 24 25  1  0
 25 26  2  0
 26 27  1  0
 27 28  2  0
 28 29  1  0
 29 30  1  0
 30 31  1  0
 31 32  1  0
 32 33  1  0
 33 34  1  0
 34 35  1  0
 35 36  1  0
 36 37  1  0
 36 38  1  0
 38 39  1  0
 39 33  1  0
 32 40  1  0
 40 41  1  0
 41 29  1  0
 28 42  1  0
 42 43  2  0
 43 25  1  0
 43 44  1  0
 44 45  1  0
 23 46  1  0
 46 47  2  0
 47 20  1  0
 47 11  1  0
 10 48  2  0
 48  6  1  0
M  END
> <Name>
CHEMBL4129607

> <pChEMBL_Value>
7.85

$$$$
CHEMBL3633142
  SciTegic08122012322D

 38 42  0  0  0  0            999 V2000
    6.4757   -8.2656    0.0000 C   0  0
    5.1799   -7.5101    0.0000 C   0  0
    5.1854   -6.0093    0.0000 C   0  0
    6.4874   -5.2644    0.0000 O   0  0
    3.8888   -5.2533    0.0000 N   0  0
    3.8943   -3.7525    0.0000 C   0  0
    5.1945   -3.0045    0.0000 C   0  0
    5.1969   -1.5045    0.0000 C   0  0
    3.8991   -0.7525    0.0000 C   0  0
    2.5987   -1.5004    0.0000 C   0  0
    1.2990   -0.7500    0.0000 N   0  0
    0.0000   -1.5000    0.0000 C   0  0
    0.0000   -3.0000    0.0000 O   0  0
   -1.2990   -0.7500    0.0000 C   0  0
   -1.2990    0.7500    0.0000 C   0  0
    0.0000    1.5000    0.0000 C   0  0
    0.0000    3.0000    0.0000 C   0  0
    1.2990    3.7500    0.0000 N   0  0
    2.5981    3.0000    0.0000 C   0  0
    3.8994    3.7477    0.0000 N   0  0
    5.1981    2.9955    0.0000 C   0  0
    5.1929    1.4954    0.0000 C   0  0
    6.4894    0.7409    0.0000 C   0  0
    7.7910    1.4865    0.0000 C   0  0
    9.0881    0.7316    0.0000 N   0  0
    9.0854   -0.7685    0.0000 C   0  0
   10.3830   -1.5209    0.0000 C   0  0
   11.6835   -0.7733    0.0000 N   0  0
   12.9811   -1.5257    0.0000 C   0  0
   11.6863    0.7267    0.0000 C   0  0
   10.3886    1.4791    0.0000 C   0  0
    7.7962    2.9864    0.0000 C   0  0
    6.4997    3.7409    0.0000 C   0  0
    6.5081    5.2417    0.0000 O   0  0
    7.8108    5.9853    0.0000 C   0  0
    2.5981    1.5000    0.0000 N   0  0
    1.2990    0.7500    0.0000 C   0  0
    2.5965   -3.0004    0.0000 C   0  0
  1  2  2  0
  2  3  1  0
  3  4  2  0
  3  5  1  0
  5  6  1  0
  6  7  2  0
  7  8  1  0
  8  9  2  0
  9 10  1  0
 10 11  1  0
 11 12  1  0
 12 13  2  0
 12 14  1  0
 14 15  2  0
 15 16  1  0
 16 17  2  0
 17 18  1  0
 18 19  2  0
 19 20  1  0
 20 21  1  0
 21 22  2  0
 22 23  1  0
 23 24  2  0
 24 25  1  0
 25 26  1  0
 26 27  1  0
 27 28  1  0
 28 29  1  0
 28 30  1  0
 30 31  1  0
 31 25  1  0
 24 32  1  0
 32 33  2  0
 33 21  1  0
 33 34  1  0
 34 35  1  0
 19 36  1  0
 36 37  2  0
 37 16  1  0
 37 11  1  0
 10 38  2  0
 38  6  1  0
M  END
> <Name>
CHEMBL3633142

> <pChEMBL_Value>
7.85

$$$$
CHEMBL4080934
  SciTegic08122012322D

 41 46  0  0  0  0            999 V2000
    0.4248    2.2256    0.0000 C   0  0
    1.0683    3.5805    0.0000 C   0  0
    2.5642    3.7017    0.0000 C   0  0
    3.4163    2.4672    0.0000 O   0  0
    3.2081    5.0574    0.0000 N   0  0
    4.7041    5.1786    0.0000 C   0  0
    5.5540    3.9426    0.0000 C   0  0
    7.0494    4.0606    0.0000 C   0  0
    7.8972    2.8222    0.0000 N   0  0
    9.3937    2.9363    0.0000 C   0  0
   10.2429    1.6998    0.0000 N   0  0
   11.7383    1.8169    0.0000 C   0  0
   12.3846    3.1706    0.0000 C   0  0
   11.5375    4.4025    0.0000 C   0  0
   12.0803    5.8016    0.0000 C   0  0
   13.5306    6.1846    0.0000 C   0  0
   13.6142    7.6815    0.0000 N   0  0
   12.2158    8.2241    0.0000 C   0  0
   11.9864    9.7064    0.0000 C   0  0
   10.4754   10.0436    0.0000 C   0  0
    9.4109    8.9868    0.0000 C   0  0
    9.7939    7.5365    0.0000 C   0  0
   11.2679    7.0625    0.0000 C   0  0
   13.1555   10.6462    0.0000 C   0  0
   14.5540   10.1036    0.0000 C   0  0
   14.7833    8.6213    0.0000 C   0  0
   10.0400    4.2899    0.0000 N   0  0
    7.6948    5.4147    0.0000 C   0  0
    9.1907    5.5359    0.0000 O   0  0
    9.8342    6.8909    0.0000 C   0  0
    6.8449    6.6507    0.0000 C   0  0
    5.3495    6.5326    0.0000 C   0  0
    4.4992    7.7692    0.0000 N   0  0
    4.7992    9.2021    0.0000 C   0  0
    3.3238    9.4727    0.0000 C   0  0
    2.4723   10.7013    0.0000 C   0  0
    0.9765   10.5786    0.0000 C   0  0
    0.1216   11.8121    0.0000 N   0  0
   -1.3734   11.6895    0.0000 C   0  0
    0.7625   13.1683    0.0000 C   0  0
    3.0531    7.9974    0.0000 C   0  0
  1  2  2  0
  2  3  1  0
  3  4  2  0
  3  5  1  0
  5  6  1  0
  6  7  2  0
  7  8  1  0
  8  9  1  0
  9 10  1  0
 10 11  2  0
 11 12  1  0
 12 13  2  0
 13 14  1  0
 14 15  1  0
 15 16  2  0
 16 17  1  0
 17 18  1  0
 18 19  2  0
 19 20  1  0
 20 21  2  0
 21 22  1  0
 22 23  2  0
 23 15  1  0
 23 18  1  0
 19 24  1  0
 24 25  1  0
 25 26  1  0
 26 17  1  0
 14 27  2  0
 27 10  1  0
  8 28  2  0
 28 29  1  0
 29 30  1  0
 28 31  1  0
 31 32  2  0
 32  6  1  0
 32 33  1  0
 33 34  1  0
 34 35  1  0
 35 36  1  0
 36 37  1  0
 37 38  1  0
 38 39  1  0
 38 40  1  0
 35 41  1  0
 41 33  1  0
M  END
> <Name>
CHEMBL4080934

> <pChEMBL_Value>
7.84

$$$$
CHEMBL4226702
  SciTegic08122012322D

 36 39  0  0  0  0            999 V2000
    6.4983   -0.7627    0.0000 C   0  0
    5.1972   -1.5092    0.0000 C   0  0
    3.8990   -0.7562    0.0000 C   0  0
    3.9026    0.7438    0.0000 O   0  0
    2.5973   -1.5031    0.0000 N   0  0
    1.2990   -0.7500    0.0000 C   0  0
    1.2990    0.7500    0.0000 C   0  0
    0.0000    1.5000    0.0000 C   0  0
   -1.2990    0.7500    0.0000 C   0  0
   -1.2990   -0.7500    0.0000 C   0  0
   -2.5972   -1.5031    0.0000 N   0  0
   -2.5951   -3.0039    0.0000 C   0  0
   -1.2948   -3.7517    0.0000 O   0  0
   -3.8933   -3.7570    0.0000 N   0  0
   -3.8912   -5.2578    0.0000 C   0  0
   -5.1876   -6.0124    0.0000 C   0  0
   -5.1824   -7.5124    0.0000 C   0  0
   -3.8808   -8.2579    0.0000 N   0  0
   -2.5843   -7.5034    0.0000 C   0  0
   -1.2804   -8.2467    0.0000 N   0  0
    0.0156   -7.4899    0.0000 C   0  0
    0.0053   -5.9899    0.0000 C   0  0
    1.2991   -5.2309    0.0000 C   0  0
    2.6033   -5.9719    0.0000 C   0  0
    3.8978   -5.2125    0.0000 N   0  0
    3.8899   -3.7125    0.0000 C   0  0
    5.1849   -2.9556    0.0000 C   0  0
    6.4879   -3.6987    0.0000 O   0  0
    6.4959   -5.1986    0.0000 C   0  0
    5.2009   -5.9556    0.0000 C   0  0
    2.6137   -7.4719    0.0000 C   0  0
    1.3199   -8.2308    0.0000 C   0  0
    1.3334   -9.7316    0.0000 O   0  0
    2.6387  -10.4707    0.0000 C   0  0
   -2.5895   -6.0034    0.0000 N   0  0
    0.0000   -1.5000    0.0000 C   0  0
  1  2  2  0
  2  3  1  0
  3  4  2  0
  3  5  1  0
  5  6  1  0
  6  7  2  0
  7  8  1  0
  8  9  2  0
  9 10  1  0
 10 11  1  0
 11 12  1  0
 12 13  2  0
 12 14  1  0
 14 15  1  0
 15 16  2  0
 16 17  1  0
 17 18  2  0
 18 19  1  0
 19 20  1  0
 20 21  1  0
 21 22  2  0
 22 23  1  0
 23 24  2  0
 24 25  1  0
 25 26  1  0
 26 27  1  0
 27 28  1  0
 28 29  1  0
 29 30  1  0
 30 25  1  0
 24 31  1  0
 31 32  2  0
 32 21  1  0
 32 33  1  0
 33 34  1  0
 19 35  2  0
 35 15  1  0
 10 36  2  0
 36  6  1  0
M  END
> <Name>
CHEMBL4226702

> <pChEMBL_Value>
7.82

$$$$
CHEMBL4098507
  SciTegic08122012322D

 42 47  0  0  1  0            999 V2000
    4.5246   -7.2506    0.0000 C   0  0
    3.9195   -5.8781    0.0000 C   0  0
    4.8054   -4.6666    0.0000 C   0  0
    6.2966   -4.8284    0.0000 O   0  0
    4.2010   -3.2956    0.0000 N   0  0
    4.9531   -1.9978    0.0000 C   0  0
    3.9511   -0.8815    0.0000 C   0  0
    2.5987   -1.5004    0.0000 C   0  0  2  0  0  0
    1.2990   -0.7500    0.0000 N   0  0
    0.0000   -1.5000    0.0000 C   0  0
    0.0000   -3.0000    0.0000 O   0  0
   -1.2990   -0.7500    0.0000 N   0  0
   -2.5987   -1.5004    0.0000 C   0  0
   -3.8967   -0.7484    0.0000 C   0  0
   -5.1969   -1.4963    0.0000 C   0  0
   -5.1993   -2.9963    0.0000 C   0  0
   -3.9014   -3.7484    0.0000 C   0  0
   -2.6012   -3.0004    0.0000 C   0  0
   -1.3034   -3.7525    0.0000 Cl  0  0
   -1.2990    0.7500    0.0000 C   0  0
    0.0000    1.5000    0.0000 C   0  0
    0.0000    3.0000    0.0000 C   0  0
    1.2990    3.7500    0.0000 N   0  0
    2.5981    3.0000    0.0000 C   0  0
    3.8994    3.7477    0.0000 N   0  0
    5.1981    2.9955    0.0000 C   0  0
    6.4997    3.7409    0.0000 C   0  0
    7.7962    2.9864    0.0000 C   0  0
    7.7910    1.4864    0.0000 C   0  0
    9.0881    0.7316    0.0000 N   0  0
   10.3910    1.4750    0.0000 C   0  0
   11.6862    0.7184    0.0000 C   0  0
   11.6787   -0.7816    0.0000 N   0  0
   12.9739   -1.5381    0.0000 C   0  0
   10.3759   -1.5250    0.0000 C   0  0
    9.0806   -0.7685    0.0000 C   0  0
    6.4894    0.7409    0.0000 C   0  0
    6.4842   -0.7590    0.0000 C   0  0
    5.1929    1.4954    0.0000 C   0  0
    2.5981    1.5000    0.0000 N   0  0
    1.2990    0.7500    0.0000 C   0  0
    2.7343   -2.9815    0.0000 C   0  0
  1  2  1  0
  2  3  1  0
  3  4  2  0
  3  5  1  0
  5  6  1  0
  6  7  1  0
  7  8  1  0
  8  9  1  1
  9 10  1  0
 10 11  2  0
 10 12  1  0
 12 13  1  0
 13 14  2  0
 14 15  1  0
 15 16  2  0
 16 17  1  0
 17 18  2  0
 18 13  1  0
 18 19  1  0
 12 20  1  0
 20 21  1  0
 21 22  2  0
 22 23  1  0
 23 24  2  0
 24 25  1  0
 25 26  1  0
 26 27  2  0
 27 28  1  0
 28 29  2  0
 29 30  1  0
 30 31  1  0
 31 32  1  0
 32 33  1  0
 33 34  1  0
 33 35  1  0
 35 36  1  0
 36 30  1  0
 29 37  1  0
 37 38  1  0
 37 39  2  0
 39 26  1  0
 24 40  1  0
 40 41  2  0
 41 21  1  0
 41  9  1  0
  8 42  1  0
 42  5  1  0
M  END
> <Name>
CHEMBL4098507

> <pChEMBL_Value>
7.80

$$$$
CHEMBL4129902
  SciTegic08122012322D

 42 45  0  0  0  0            999 V2000
    6.4757   -8.2656    0.0000 C   0  0
    5.1799   -7.5101    0.0000 C   0  0
    5.1854   -6.0093    0.0000 C   0  0
    6.4874   -5.2644    0.0000 O   0  0
    3.8888   -5.2533    0.0000 N   0  0
    3.8943   -3.7525    0.0000 C   0  0
    5.1945   -3.0045    0.0000 C   0  0
    5.1969   -1.5045    0.0000 C   0  0
    3.8991   -0.7525    0.0000 C   0  0
    2.5987   -1.5004    0.0000 C   0  0
    1.2990   -0.7500    0.0000 N   0  0
    0.0000   -1.5000    0.0000 C   0  0
    0.0000   -3.0000    0.0000 O   0  0
   -1.2990   -0.7500    0.0000 N   0  0
   -2.6003   -1.4977    0.0000 C   0  0
   -3.8983   -0.7459    0.0000 C   0  0
   -2.6030   -2.9977    0.0000 C   0  0
   -1.2990    0.7500    0.0000 C   0  0
   -2.5981    1.5000    0.0000 O   0  0
    0.0000    1.5000    0.0000 C   0  0
    0.0000    3.0000    0.0000 C   0  0
    1.2990    3.7500    0.0000 N   0  0
    2.5981    3.0000    0.0000 C   0  0
    3.8994    3.7477    0.0000 N   0  0
    5.1981    2.9955    0.0000 C   0  0
    5.1929    1.4954    0.0000 C   0  0
    6.4894    0.7409    0.0000 C   0  0
    7.7910    1.4865    0.0000 C   0  0
    9.0897    0.7342    0.0000 N   0  0
    9.0871   -0.7658    0.0000 C   0  0
   10.3910    1.4820    0.0000 C   0  0
   11.6897    0.7298    0.0000 C   0  0
   12.9910    1.4775    0.0000 N   0  0
   14.2890    0.7257    0.0000 C   0  0
   12.9935    2.9775    0.0000 C   0  0
    7.7962    2.9864    0.0000 C   0  0
    6.4997    3.7409    0.0000 C   0  0
    6.5081    5.2417    0.0000 O   0  0
    7.8108    5.9853    0.0000 C   0  0
    2.5981    1.5000    0.0000 N   0  0
    1.2990    0.7500    0.0000 C   0  0
    2.5965   -3.0004    0.0000 C   0  0
  1  2  2  0
  2  3  1  0
  3  4  2  0
  3  5  1  0
  5  6  1  0
  6  7  2  0
  7  8  1  0
  8  9  2  0
  9 10  1  0
 10 11  1  0
 11 12  1  0
 12 13  2  0
 12 14  1  0
 14 15  1  0
 15 16  1  0
 15 17  1  0
 14 18  1  0
 18 19  2  0
 18 20  1  0
 20 21  2  0
 21 22  1  0
 22 23  2  0
 23 24  1  0
 24 25  1  0
 25 26  2  0
 26 27  1  0
 27 28  2  0
 28 29  1  0
 29 30  1  0
 29 31  1  0
 31 32  1  0
 32 33  1  0
 33 34  1  0
 33 35  1  0
 28 36  1  0
 36 37  2  0
 37 25  1  0
 37 38  1  0
 38 39  1  0
 23 40  1  0
 40 41  2  0
 41 20  1  0
 41 11  1  0
 10 42  2  0
 42  6  1  0
M  END
> <Name>
CHEMBL4129902

> <pChEMBL_Value>
7.80

$$$$
CHEMBL2032379
  SciTegic08122012322D

 38 42  0  0  0  0            999 V2000
    6.4757   -8.2656    0.0000 C   0  0
    5.1799   -7.5101    0.0000 C   0  0
    5.1854   -6.0093    0.0000 C   0  0
    6.4874   -5.2644    0.0000 O   0  0
    3.8888   -5.2533    0.0000 N   0  0
    3.8943   -3.7525    0.0000 C   0  0
    5.1945   -3.0045    0.0000 C   0  0
    5.1969   -1.5045    0.0000 C   0  0
    3.8991   -0.7525    0.0000 C   0  0
    2.5987   -1.5004    0.0000 C   0  0
    1.2990   -0.7500    0.0000 N   0  0
    0.0000   -1.5000    0.0000 C   0  0
    0.0000   -3.0000    0.0000 O   0  0
   -1.2990   -0.7500    0.0000 N   0  0
   -2.5981   -1.5000    0.0000 C   0  0
   -1.2990    0.7500    0.0000 C   0  0
    0.0000    1.5000    0.0000 C   0  0
    0.0000    3.0000    0.0000 C   0  0
    1.2990    3.7500    0.0000 N   0  0
    2.5981    3.0000    0.0000 C   0  0
    3.8994    3.7477    0.0000 N   0  0
    5.1981    2.9955    0.0000 C   0  0
    5.1929    1.4954    0.0000 C   0  0
    6.4894    0.7409    0.0000 C   0  0
    7.7910    1.4865    0.0000 C   0  0
    9.0881    0.7316    0.0000 N   0  0
    9.0854   -0.7685    0.0000 C   0  0
   10.3830   -1.5209    0.0000 C   0  0
   11.6835   -0.7733    0.0000 O   0  0
   11.6863    0.7267    0.0000 C   0  0
   10.3886    1.4791    0.0000 C   0  0
    7.7962    2.9864    0.0000 C   0  0
    6.4997    3.7409    0.0000 C   0  0
    6.5081    5.2417    0.0000 O   0  0
    7.8108    5.9853    0.0000 C   0  0
    2.5981    1.5000    0.0000 N   0  0
    1.2990    0.7500    0.0000 C   0  0
    2.5965   -3.0004    0.0000 C   0  0
  1  2  2  0
  2  3  1  0
  3  4  2  0
  3  5  1  0
  5  6  1  0
  6  7  2  0
  7  8  1  0
  8  9  2  0
  9 10  1  0
 10 11  1  0
 11 12  1  0
 12 13  2  0
 12 14  1  0
 14 15  1  0
 14 16  1  0
 16 17  1  0
 17 18  2  0
 18 19  1  0
 19 20  2  0
 20 21  1  0
 21 22  1  0
 22 23  2  0
 23 24  1  0
 24 25  2  0
 25 26  1  0
 26 27  1  0
 27 28  1  0
 28 29  1  0
 29 30  1  0
 30 31  1  0
 31 26  1  0
 25 32  1  0
 32 33  2  0
 33 22  1  0
 33 34  1  0
 34 35  1  0
 20 36  1  0
 36 37  2  0
 37 17  1  0
 37 11  1  0
 10 38  2  0
 38  6  1  0
M  END
> <Name>
CHEMBL2032379

> <pChEMBL_Value>
7.79

$$$$
CHEMBL4228473
  SciTegic08122012322D

 37 40  0  0  0  0            999 V2000
    6.4983   -0.7627    0.0000 C   0  0
    5.1972   -1.5092    0.0000 C   0  0
    3.8990   -0.7562    0.0000 C   0  0
    3.9026    0.7438    0.0000 O   0  0
    2.5973   -1.5031    0.0000 N   0  0
    1.2990   -0.7500    0.0000 C   0  0
    1.2990    0.7500    0.0000 C   0  0
    0.0000    1.5000    0.0000 C   0  0
   -1.2990    0.7500    0.0000 C   0  0
   -1.2990   -0.7500    0.0000 C   0  0
   -2.5972   -1.5031    0.0000 N   0  0
   -2.5951   -3.0039    0.0000 C   0  0
   -1.2948   -3.7517    0.0000 O   0  0
   -3.8933   -3.7570    0.0000 N   0  0
   -3.8912   -5.2578    0.0000 C   0  0
   -5.1876   -6.0124    0.0000 C   0  0
   -5.1824   -7.5124    0.0000 C   0  0
   -3.8808   -8.2579    0.0000 N   0  0
   -2.5843   -7.5034    0.0000 C   0  0
   -1.2804   -8.2467    0.0000 N   0  0
    0.0156   -7.4899    0.0000 C   0  0
    0.0053   -5.9899    0.0000 C   0  0
    1.2991   -5.2309    0.0000 C   0  0
    2.6033   -5.9719    0.0000 C   0  0
    3.8978   -5.2125    0.0000 N   0  0
    3.8899   -3.7125    0.0000 C   0  0
    5.1849   -2.9556    0.0000 C   0  0
    6.4879   -3.6987    0.0000 N   0  0
    7.7830   -2.9418    0.0000 C   0  0
    6.4959   -5.1986    0.0000 C   0  0
    5.2009   -5.9556    0.0000 C   0  0
    2.6137   -7.4719    0.0000 C   0  0
    1.3199   -8.2308    0.0000 C   0  0
    1.3334   -9.7316    0.0000 O   0  0
    2.6387  -10.4707    0.0000 C   0  0
   -2.5895   -6.0034    0.0000 N   0  0
    0.0000   -1.5000    0.0000 C   0  0
  1  2  2  0
  2  3  1  0
  3  4  2  0
  3  5  1  0
  5  6  1  0
  6  7  2  0
  7  8  1  0
  8  9  2  0
  9 10  1  0
 10 11  1  0
 11 12  1  0
 12 13  2  0
 12 14  1  0
 14 15  1  0
 15 16  2  0
 16 17  1  0
 17 18  2  0
 18 19  1  0
 19 20  1  0
 20 21  1  0
 21 22  2  0
 22 23  1  0
 23 24  2  0
 24 25  1  0
 25 26  1  0
 26 27  1  0
 27 28  1  0
 28 29  1  0
 28 30  1  0
 30 31  1  0
 31 25  1  0
 24 32  1  0
 32 33  2  0
 33 21  1  0
 33 34  1  0
 34 35  1  0
 19 36  2  0
 36 15  1  0
 10 37  2  0
 37  6  1  0
M  END
> <Name>
CHEMBL4228473

> <pChEMBL_Value>
7.77

$$$$
CHEMBL4097883
  SciTegic08122012322D

 43 47  0  0  0  0            999 V2000
   10.3961   -1.5214    0.0000 C   0  0
    9.0994   -0.7675    0.0000 C   0  0
    7.7969   -1.5132    0.0000 C   0  0
    7.7919   -3.0132    0.0000 O   0  0
    6.4994   -0.7589    0.0000 N   0  0
    5.1969   -1.5045    0.0000 C   0  0
    3.8991   -0.7525    0.0000 C   0  0
    2.5987   -1.5004    0.0000 C   0  0
    1.2990   -0.7500    0.0000 N   0  0
    1.2990    0.7500    0.0000 C   0  0
    2.5981    1.5000    0.0000 O   0  0
    0.0000    1.5000    0.0000 C   0  0
   -1.2990    0.7500    0.0000 C   0  0
   -2.5981    1.5000    0.0000 C   0  0
   -1.2990   -0.7500    0.0000 C   0  0
   -2.5981   -1.5000    0.0000 C   0  0
   -2.5981   -3.0000    0.0000 N   0  0
   -1.2990   -3.7500    0.0000 C   0  0
   -1.2959   -5.2508    0.0000 N   0  0
   -2.5937   -6.0048    0.0000 C   0  0
   -3.8933   -5.2556    0.0000 C   0  0
   -5.1918   -6.0065    0.0000 C   0  0
   -5.1908   -7.5065    0.0000 C   0  0
   -6.4900   -8.2577    0.0000 N   0  0
   -7.7908   -7.5107    0.0000 C   0  0
   -9.0882   -8.2636    0.0000 C   0  0
   -9.0848   -9.7636    0.0000 N   0  0
  -10.3822  -10.5166    0.0000 C   0  0
   -7.7841  -10.5107    0.0000 C   0  0
   -6.4867   -9.7578    0.0000 C   0  0
   -3.8913   -8.2556    0.0000 C   0  0
   -2.5928   -7.5048    0.0000 C   0  0
   -1.2941   -8.2571    0.0000 O   0  0
   -1.2953   -9.7571    0.0000 C   0  0
    0.0000   -3.0000    0.0000 N   0  0
    0.0000   -1.5000    0.0000 C   0  0
    2.5965   -3.0004    0.0000 C   0  0
    3.8943   -3.7525    0.0000 C   0  0
    3.8919   -5.2533    0.0000 C   0  0
    2.5922   -6.0021    0.0000 C   0  0
    5.1900   -6.0050    0.0000 C   0  0
    3.8903   -6.7533    0.0000 C   0  0
    5.1945   -3.0045    0.0000 C   0  0
  1  2  2  0
  2  3  1  0
  3  4  2  0
  3  5  1  0
  5  6  1  0
  6  7  2  0
  7  8  1  0
  8  9  1  0
  9 10  1  0
 10 11  2  0
 10 12  1  0
 12 13  2  0
 13 14  1  0
 13 15  1  0
 15 16  2  0
 16 17  1  0
 17 18  2  0
 18 19  1  0
 19 20  1  0
 20 21  2  0
 21 22  1  0
 22 23  2  0
 23 24  1  0
 24 25  1  0
 25 26  1  0
 26 27  1  0
 27 28  1  0
 27 29  1  0
 29 30  1  0
 30 24  1  0
 23 31  1  0
 31 32  2  0
 32 20  1  0
 32 33  1  0
 33 34  1  0
 18 35  1  0
 35 36  2  0
 36 15  1  0
 36  9  1  0
  8 37  2  0
 37 38  1  0
 38 39  1  0
 39 40  1  0
 39 41  1  0
 39 42  1  0
 38 43  2  0
 43  6  1  0
M  END
> <Name>
CHEMBL4097883

> <pChEMBL_Value>
7.75

$$$$
CHEMBL4060198
  SciTegic08122012322D

 42 47  0  0  1  0            999 V2000
    4.5246   -7.2506    0.0000 C   0  0
    3.9195   -5.8781    0.0000 C   0  0
    4.8054   -4.6666    0.0000 C   0  0
    6.2966   -4.8284    0.0000 O   0  0
    4.2010   -3.2956    0.0000 N   0  0
    4.9531   -1.9978    0.0000 C   0  0
    3.9511   -0.8815    0.0000 C   0  0
    2.5987   -1.5004    0.0000 C   0  0  2  0  0  0
    1.2990   -0.7500    0.0000 N   0  0
    0.0000   -1.5000    0.0000 C   0  0
    0.0000   -3.0000    0.0000 O   0  0
   -1.2990   -0.7500    0.0000 N   0  0
   -2.5987   -1.5004    0.0000 C   0  0
   -3.8967   -0.7484    0.0000 C   0  0
   -5.1969   -1.4963    0.0000 C   0  0
   -5.1993   -2.9963    0.0000 C   0  0
   -3.9014   -3.7484    0.0000 C   0  0
   -2.6012   -3.0004    0.0000 C   0  0
   -1.3034   -3.7525    0.0000 F   0  0
   -1.2990    0.7500    0.0000 C   0  0
    0.0000    1.5000    0.0000 C   0  0
    0.0000    3.0000    0.0000 C   0  0
    1.2990    3.7500    0.0000 N   0  0
    2.5981    3.0000    0.0000 C   0  0
    3.8994    3.7477    0.0000 N   0  0
    5.1981    2.9955    0.0000 C   0  0
    6.4997    3.7409    0.0000 C   0  0
    7.7962    2.9864    0.0000 C   0  0
    7.7910    1.4864    0.0000 C   0  0
    9.0881    0.7316    0.0000 N   0  0
   10.3910    1.4750    0.0000 C   0  0
   11.6862    0.7184    0.0000 C   0  0
   11.6787   -0.7816    0.0000 N   0  0
   12.9739   -1.5381    0.0000 C   0  0
   10.3759   -1.5250    0.0000 C   0  0
    9.0806   -0.7685    0.0000 C   0  0
    6.4894    0.7409    0.0000 C   0  0
    6.4842   -0.7590    0.0000 C   0  0
    5.1929    1.4954    0.0000 C   0  0
    2.5981    1.5000    0.0000 N   0  0
    1.2990    0.7500    0.0000 C   0  0
    2.7343   -2.9815    0.0000 C   0  0
  1  2  1  0
  2  3  1  0
  3  4  2  0
  3  5  1  0
  5  6  1  0
  6  7  1  0
  7  8  1  0
  8  9  1  1
  9 10  1  0
 10 11  2  0
 10 12  1  0
 12 13  1  0
 13 14  2  0
 14 15  1  0
 15 16  2  0
 16 17  1  0
 17 18  2  0
 18 13  1  0
 18 19  1  0
 12 20  1  0
 20 21  1  0
 21 22  2  0
 22 23  1  0
 23 24  2  0
 24 25  1  0
 25 26  1  0
 26 27  2  0
 27 28  1  0
 28 29  2  0
 29 30  1  0
 30 31  1  0
 31 32  1  0
 32 33  1  0
 33 34  1  0
 33 35  1  0
 35 36  1  0
 36 30  1  0
 29 37  1  0
 37 38  1  0
 37 39  2  0
 39 26  1  0
 24 40  1  0
 40 41  2  0
 41 21  1  0
 41  9  1  0
  8 42  1  0
 42  5  1  0
M  END
> <Name>
CHEMBL4060198

> <pChEMBL_Value>
7.75

$$$$
CHEMBL4225255
  SciTegic08122012322D

 37 39  0  0  0  0            999 V2000
    6.4983   -0.7627    0.0000 C   0  0
    5.1972   -1.5092    0.0000 C   0  0
    3.8990   -0.7562    0.0000 C   0  0
    3.9026    0.7438    0.0000 O   0  0
    2.5973   -1.5031    0.0000 N   0  0
    1.2990   -0.7500    0.0000 C   0  0
    1.2990    0.7500    0.0000 C   0  0
    0.0000    1.5000    0.0000 C   0  0
   -1.2990    0.7500    0.0000 C   0  0
   -1.2990   -0.7500    0.0000 C   0  0
   -2.5972   -1.5031    0.0000 N   0  0
   -2.5951   -3.0039    0.0000 C   0  0
   -1.2948   -3.7517    0.0000 O   0  0
   -3.8933   -3.7570    0.0000 N   0  0
   -3.8912   -5.2578    0.0000 C   0  0
   -5.1876   -6.0124    0.0000 C   0  0
   -5.1824   -7.5124    0.0000 C   0  0
   -3.8808   -8.2579    0.0000 N   0  0
   -2.5843   -7.5034    0.0000 C   0  0
   -1.2804   -8.2467    0.0000 N   0  0
    0.0156   -7.4899    0.0000 C   0  0
    0.0053   -5.9899    0.0000 C   0  0
    1.2991   -5.2309    0.0000 C   0  0
    2.6033   -5.9719    0.0000 C   0  0
    3.8994   -5.2152    0.0000 N   0  0
    3.8917   -3.7152    0.0000 C   0  0
    5.2033   -5.9584    0.0000 C   0  0
    6.4994   -5.2017    0.0000 C   0  0
    7.8032   -5.9450    0.0000 N   0  0
    9.0986   -5.1887    0.0000 C   0  0
    7.8110   -7.4450    0.0000 C   0  0
    2.6137   -7.4719    0.0000 C   0  0
    1.3199   -8.2308    0.0000 C   0  0
    1.3334   -9.7316    0.0000 O   0  0
    2.6387  -10.4707    0.0000 C   0  0
   -2.5895   -6.0034    0.0000 N   0  0
    0.0000   -1.5000    0.0000 C   0  0
  1  2  2  0
  2  3  1  0
  3  4  2  0
  3  5  1  0
  5  6  1  0
  6  7  2  0
  7  8  1  0
  8  9  2  0
  9 10  1  0
 10 11  1  0
 11 12  1  0
 12 13  2  0
 12 14  1  0
 14 15  1  0
 15 16  2  0
 16 17  1  0
 17 18  2  0
 18 19  1  0
 19 20  1  0
 20 21  1  0
 21 22  2  0
 22 23  1  0
 23 24  2  0
 24 25  1  0
 25 26  1  0
 25 27  1  0
 27 28  1  0
 28 29  1  0
 29 30  1  0
 29 31  1  0
 24 32  1  0
 32 33  2  0
 33 21  1  0
 33 34  1  0
 34 35  1  0
 19 36  2  0
 36 15  1  0
 10 37  2  0
 37  6  1  0
M  END
> <Name>
CHEMBL4225255

> <pChEMBL_Value>
7.72

$$$$
CHEMBL3699590
  SciTegic08122012322D

 38 41  0  0  0  0            999 V2000
    3.8912   -5.2570    0.0000 C   0  0
    3.8933   -3.7570    0.0000 C   0  0
    2.5951   -3.0039    0.0000 C   0  0
    1.2948   -3.7516    0.0000 O   0  0
    2.5973   -1.5031    0.0000 N   0  0
    1.2990   -0.7500    0.0000 C   0  0
    1.2990    0.7500    0.0000 C   0  0
    0.0000    1.5000    0.0000 C   0  0
   -1.2990    0.7500    0.0000 C   0  0
   -1.2990   -0.7500    0.0000 C   0  0
   -2.5972   -1.5031    0.0000 N   0  0
   -2.5951   -3.0039    0.0000 C   0  0
   -1.2935   -3.7495    0.0000 N   0  0
   -1.2883   -5.2495    0.0000 C   0  0
    0.0125   -5.9981    0.0000 N   0  0
    0.0156   -7.4989    0.0000 C   0  0
   -1.2835   -8.2490    0.0000 C   0  0
   -1.2835   -9.7490    0.0000 C   0  0
    0.0156  -10.4990    0.0000 C   0  0
    0.0156  -11.9998    0.0000 N   0  0
   -1.2823  -12.7520    0.0000 C   0  0
   -1.2799  -14.2520    0.0000 C   0  0
    0.0203  -14.9999    0.0000 N   0  0
    0.0258  -16.5007    0.0000 C   0  0
   -1.2707  -17.2550    0.0000 O   0  0
    1.3278  -17.2472    0.0000 C   0  0
    1.3333  -18.7472    0.0000 O   0  0
    1.3182  -14.2478    0.0000 C   0  0
    1.3158  -12.7478    0.0000 C   0  0
    1.3146   -9.7490    0.0000 C   0  0
    1.3146   -8.2490    0.0000 C   0  0
    2.6159   -7.5013    0.0000 O   0  0
    3.9139   -8.2532    0.0000 C   0  0
   -2.5847   -6.0040    0.0000 N   0  0
   -3.8863   -5.2585    0.0000 C   0  0
   -3.8915   -3.7585    0.0000 C   0  0
   -5.1932   -3.0130    0.0000 Cl  0  0
    0.0000   -1.5000    0.0000 C   0  0
  1  2  2  0
  2  3  1  0
  3  4  2  0
  3  5  1  0
  5  6  1  0
  6  7  2  0
  7  8  1  0
  8  9  2  0
  9 10  1  0
 10 11  1  0
 11 12  1  0
 12 13  2  0
 13 14  1  0
 14 15  1  0
 15 16  1  0
 16 17  2  0
 17 18  1  0
 18 19  2  0
 19 20  1  0
 20 21  1  0
 21 22  1  0
 22 23  1  0
 23 24  1  0
 24 25  2  0
 24 26  1  0
 26 27  1  0
 23 28  1  0
 28 29  1  0
 29 20  1  0
 19 30  1  0
 30 31  2  0
 31 16  1  0
 31 32  1  0
 32 33  1  0
 14 34  2  0
 34 35  1  0
 35 36  2  0
 36 12  1  0
 36 37  1  0
 10 38  2  0
 38  6  1  0
M  END
> <Name>
CHEMBL3699590

> <pChEMBL_Value>
7.70

$$$$
CHEMBL3699604
  SciTegic08122012322D

 41 44  0  0  0  0            999 V2000
    3.8912   -5.2570    0.0000 C   0  0
    3.8933   -3.7570    0.0000 C   0  0
    2.5951   -3.0039    0.0000 C   0  0
    1.2948   -3.7516    0.0000 O   0  0
    2.5973   -1.5031    0.0000 N   0  0
    1.2990   -0.7500    0.0000 C   0  0
    1.2990    0.7500    0.0000 C   0  0
    0.0000    1.5000    0.0000 C   0  0
   -1.2990    0.7500    0.0000 C   0  0
   -1.2990   -0.7500    0.0000 C   0  0
   -2.5972   -1.5031    0.0000 N   0  0
   -2.5951   -3.0039    0.0000 C   0  0
   -1.2935   -3.7495    0.0000 N   0  0
   -1.2883   -5.2495    0.0000 C   0  0
    0.0125   -5.9981    0.0000 N   0  0
    0.0156   -7.4989    0.0000 C   0  0
   -1.2835   -8.2490    0.0000 C   0  0
   -1.2835   -9.7490    0.0000 C   0  0
    0.0156  -10.4990    0.0000 C   0  0
    0.0156  -11.9998    0.0000 N   0  0
   -1.2823  -12.7520    0.0000 C   0  0
   -1.2799  -14.2520    0.0000 C   0  0
    0.0203  -14.9999    0.0000 N   0  0
    0.0258  -16.5007    0.0000 C   0  0
   -1.2707  -17.2550    0.0000 O   0  0
    1.3278  -17.2472    0.0000 O   0  0
    1.3333  -18.7472    0.0000 C   0  0
    1.3182  -14.2478    0.0000 C   0  0
    1.3158  -12.7478    0.0000 C   0  0
    1.3146   -9.7490    0.0000 C   0  0
    1.3146   -8.2490    0.0000 C   0  0
    2.6159   -7.5013    0.0000 O   0  0
    3.9139   -8.2532    0.0000 C   0  0
   -2.5847   -6.0040    0.0000 N   0  0
   -3.8863   -5.2585    0.0000 C   0  0
   -3.8915   -3.7585    0.0000 C   0  0
   -5.1939   -3.0126    0.0000 C   0  0
   -6.4908   -3.7663    0.0000 F   0  0
   -5.1987   -1.5126    0.0000 F   0  0
   -6.4952   -2.2666    0.0000 F   0  0
    0.0000   -1.5000    0.0000 C   0  0
  1  2  2  0
  2  3  1  0
  3  4  2  0
  3  5  1  0
  5  6  1  0
  6  7  2  0
  7  8  1  0
  8  9  2  0
  9 10  1  0
 10 11  1  0
 11 12  1  0
 12 13  2  0
 13 14  1  0
 14 15  1  0
 15 16  1  0
 16 17  2  0
 17 18  1  0
 18 19  2  0
 19 20  1  0
 20 21  1  0
 21 22  1  0
 22 23  1  0
 23 24  1  0
 24 25  2  0
 24 26  1  0
 26 27  1  0
 23 28  1  0
 28 29  1  0
 29 20  1  0
 19 30  1  0
 30 31  2  0
 31 16  1  0
 31 32  1  0
 32 33  1  0
 14 34  2  0
 34 35  1  0
 35 36  2  0
 36 12  1  0
 36 37  1  0
 37 38  1  0
 37 39  1  0
 37 40  1  0
 10 41  2  0
 41  6  1  0
M  END
> <Name>
CHEMBL3699604

> <pChEMBL_Value>
7.70

$$$$
CHEMBL3954684
  SciTegic08122012322D

 33 35  0  0  0  0            999 V2000
    3.8912   -5.2570    0.0000 C   0  0
    3.8933   -3.7570    0.0000 C   0  0
    2.5951   -3.0039    0.0000 C   0  0
    1.2948   -3.7516    0.0000 O   0  0
    2.5973   -1.5031    0.0000 N   0  0
    1.2990   -0.7500    0.0000 C   0  0
    1.2990    0.7500    0.0000 C   0  0
    0.0000    1.5000    0.0000 C   0  0
   -1.2990    0.7500    0.0000 C   0  0
   -1.2990   -0.7500    0.0000 C   0  0
   -2.5972   -1.5031    0.0000 N   0  0
   -2.5951   -3.0039    0.0000 C   0  0
   -1.2935   -3.7495    0.0000 N   0  0
   -1.2883   -5.2495    0.0000 C   0  0
    0.0125   -5.9981    0.0000 N   0  0
    0.0156   -7.4989    0.0000 C   0  0
   -1.2835   -8.2490    0.0000 C   0  0
   -1.2835   -9.7490    0.0000 C   0  0
    0.0156  -10.4990    0.0000 C   0  0
    0.0187  -11.9999    0.0000 O   0  0
    1.3188  -12.7480    0.0000 C   0  0
    1.3146   -9.7490    0.0000 C   0  0
    1.3146   -8.2490    0.0000 C   0  0
    2.6159   -7.5013    0.0000 O   0  0
    3.9139   -8.2532    0.0000 C   0  0
   -2.5847   -6.0040    0.0000 N   0  0
   -3.8863   -5.2585    0.0000 C   0  0
   -3.8915   -3.7585    0.0000 C   0  0
   -5.1939   -3.0126    0.0000 C   0  0
   -6.4908   -3.7663    0.0000 F   0  0
   -5.1987   -1.5126    0.0000 F   0  0
   -6.4952   -2.2666    0.0000 F   0  0
    0.0000   -1.5000    0.0000 C   0  0
  1  2  2  0
  2  3  1  0
  3  4  2  0
  3  5  1  0
  5  6  1  0
  6  7  2  0
  7  8  1  0
  8  9  2  0
  9 10  1  0
 10 11  1  0
 11 12  1  0
 12 13  2  0
 13 14  1  0
 14 15  1  0
 15 16  1  0
 16 17  2  0
 17 18  1  0
 18 19  2  0
 19 20  1  0
 20 21  1  0
 19 22  1  0
 22 23  2  0
 23 16  1  0
 23 24  1  0
 24 25  1  0
 14 26  2  0
 26 27  1  0
 27 28  2  0
 28 12  1  0
 28 29  1  0
 29 30  1  0
 29 31  1  0
 29 32  1  0
 10 33  2  0
 33  6  1  0
M  END
> <Name>
CHEMBL3954684

> <pChEMBL_Value>
7.70

$$$$
CHEMBL3699582
  SciTegic08122012322D

 37 40  0  0  0  0            999 V2000
    3.8912   -5.2570    0.0000 C   0  0
    3.8933   -3.7570    0.0000 C   0  0
    2.5951   -3.0039    0.0000 C   0  0
    1.2948   -3.7516    0.0000 O   0  0
    2.5973   -1.5031    0.0000 N   0  0
    1.2990   -0.7500    0.0000 C   0  0
    1.2990    0.7500    0.0000 C   0  0
    0.0000    1.5000    0.0000 C   0  0
   -1.2990    0.7500    0.0000 C   0  0
   -1.2990   -0.7500    0.0000 C   0  0
   -2.5972   -1.5031    0.0000 N   0  0
   -2.5951   -3.0039    0.0000 C   0  0
   -1.2935   -3.7495    0.0000 N   0  0
   -1.2883   -5.2495    0.0000 C   0  0
    0.0125   -5.9981    0.0000 N   0  0
    0.0156   -7.4989    0.0000 C   0  0
   -1.2835   -8.2490    0.0000 C   0  0
   -1.2835   -9.7490    0.0000 C   0  0
    0.0156  -10.4990    0.0000 C   0  0
    0.0156  -11.9998    0.0000 N   0  0
   -1.2823  -12.7520    0.0000 C   0  0
   -1.2799  -14.2520    0.0000 C   0  0
    0.0203  -14.9999    0.0000 O   0  0
    1.3182  -14.2478    0.0000 C   0  0
    1.3158  -12.7478    0.0000 C   0  0
    1.3146   -9.7490    0.0000 C   0  0
    1.3146   -8.2490    0.0000 C   0  0
    2.6159   -7.5013    0.0000 O   0  0
    3.9139   -8.2532    0.0000 C   0  0
   -2.5847   -6.0040    0.0000 N   0  0
   -3.8863   -5.2585    0.0000 C   0  0
   -3.8915   -3.7585    0.0000 C   0  0
   -5.1939   -3.0126    0.0000 C   0  0
   -6.4908   -3.7663    0.0000 F   0  0
   -5.1987   -1.5126    0.0000 F   0  0
   -6.4952   -2.2666    0.0000 F   0  0
    0.0000   -1.5000    0.0000 C   0  0
  1  2  2  0
  2  3  1  0
  3  4  2  0
  3  5  1  0
  5  6  1  0
  6  7  2  0
  7  8  1  0
  8  9  2  0
  9 10  1  0
 10 11  1  0
 11 12  1  0
 12 13  2  0
 13 14  1  0
 14 15  1  0
 15 16  1  0
 16 17  2  0
 17 18  1  0
 18 19  2  0
 19 20  1  0
 20 21  1  0
 21 22  1  0
 22 23  1  0
 23 24  1  0
 24 25  1  0
 25 20  1  0
 19 26  1  0
 26 27  2  0
 27 16  1  0
 27 28  1  0
 28 29  1  0
 14 30  2  0
 30 31  1  0
 31 32  2  0
 32 12  1  0
 32 33  1  0
 33 34  1  0
 33 35  1  0
 33 36  1  0
 10 37  2  0
 37  6  1  0
M  END
> <Name>
CHEMBL3699582

> <pChEMBL_Value>
7.70

$$$$
CHEMBL3699593
  SciTegic08122012322D

 41 44  0  0  0  0            999 V2000
    3.8912   -5.2570    0.0000 C   0  0
    3.8933   -3.7570    0.0000 C   0  0
    2.5951   -3.0039    0.0000 C   0  0
    1.2948   -3.7516    0.0000 O   0  0
    2.5973   -1.5031    0.0000 N   0  0
    1.2990   -0.7500    0.0000 C   0  0
    1.2990    0.7500    0.0000 C   0  0
    0.0000    1.5000    0.0000 C   0  0
   -1.2990    0.7500    0.0000 C   0  0
   -1.2990   -0.7500    0.0000 C   0  0
   -2.5972   -1.5031    0.0000 N   0  0
   -2.5951   -3.0039    0.0000 C   0  0
   -1.2935   -3.7495    0.0000 N   0  0
   -1.2883   -5.2495    0.0000 C   0  0
    0.0125   -5.9981    0.0000 N   0  0
    0.0156   -7.4989    0.0000 C   0  0
   -1.2835   -8.2490    0.0000 C   0  0
   -1.2835   -9.7490    0.0000 C   0  0
    0.0156  -10.4990    0.0000 C   0  0
    0.0156  -11.9998    0.0000 N   0  0
   -1.2823  -12.7520    0.0000 C   0  0
   -1.2799  -14.2520    0.0000 C   0  0
    0.0203  -14.9999    0.0000 N   0  0
    0.0227  -16.5007    0.0000 S   0  0
    1.3232  -17.2482    0.0000 C   0  0
   -1.2746  -17.2536    0.0000 O   0  0
    0.0258  -18.0007    0.0000 O   0  0
    1.3182  -14.2478    0.0000 C   0  0
    1.3158  -12.7478    0.0000 C   0  0
    1.3146   -9.7490    0.0000 C   0  0
    1.3146   -8.2490    0.0000 C   0  0
    2.6159   -7.5013    0.0000 O   0  0
    3.9139   -8.2532    0.0000 C   0  0
   -2.5847   -6.0040    0.0000 N   0  0
   -3.8863   -5.2585    0.0000 C   0  0
   -3.8915   -3.7585    0.0000 C   0  0
   -5.1939   -3.0126    0.0000 C   0  0
   -6.4908   -3.7663    0.0000 F   0  0
   -5.1987   -1.5126    0.0000 F   0  0
   -6.4952   -2.2666    0.0000 F   0  0
    0.0000   -1.5000    0.0000 C   0  0
  1  2  2  0
  2  3  1  0
  3  4  2  0
  3  5  1  0
  5  6  1  0
  6  7  2  0
  7  8  1  0
  8  9  2  0
  9 10  1  0
 10 11  1  0
 11 12  1  0
 12 13  2  0
 13 14  1  0
 14 15  1  0
 15 16  1  0
 16 17  2  0
 17 18  1  0
 18 19  2  0
 19 20  1  0
 20 21  1  0
 21 22  1  0
 22 23  1  0
 23 24  1  0
 24 25  1  0
 24 26  2  0
 24 27  2  0
 23 28  1  0
 28 29  1  0
 29 20  1  0
 19 30  1  0
 30 31  2  0
 31 16  1  0
 31 32  1  0
 32 33  1  0
 14 34  2  0
 34 35  1  0
 35 36  2  0
 36 12  1  0
 36 37  1  0
 37 38  1  0
 37 39  1  0
 37 40  1  0
 10 41  2  0
 41  6  1  0
M  END
> <Name>
CHEMBL3699593

> <pChEMBL_Value>
7.70

$$$$
CHEMBL3699612
  SciTegic08122012322D

 38 41  0  0  0  0            999 V2000
    7.6472   -5.4375    0.0000 C   0  0
    9.1243   -5.6982    0.0000 C   0  0
   10.0899   -4.5492    0.0000 C   0  0
    9.5775   -3.1394    0.0000 O   0  0
   11.5679   -4.8100    0.0000 N   0  0
   12.5335   -3.6610    0.0000 C   0  0
   14.0111   -3.9196    0.0000 C   0  0
   14.9737   -2.7693    0.0000 C   0  0
   14.4589   -1.3604    0.0000 C   0  0
   12.9813   -1.1018    0.0000 C   0  0
   12.4633    0.3068    0.0000 N   0  0
   10.9846    0.5635    0.0000 C   0  0
   10.0259   -0.5902    0.0000 N   0  0
    8.5474   -0.3368    0.0000 C   0  0
    7.5858   -1.4891    0.0000 N   0  0
    6.1069   -1.2335    0.0000 C   0  0
    5.5920    0.1754    0.0000 C   0  0
    4.1145    0.4339    0.0000 C   0  0
    3.1484   -0.7186    0.0000 C   0  0
    1.6852   -0.3846    0.0000 N   0  0
    1.3514    1.0778    0.0000 C   0  0
    0.0000    1.7286    0.0000 C   0  0
   -1.3515    1.0777    0.0000 C   0  0
   -1.6852   -0.3847    0.0000 O   0  0
   -0.7500   -1.5574    0.0000 C   0  0
    0.7500   -1.5574    0.0000 C   0  0
    3.6667   -2.1252    0.0000 C   0  0
    5.1442   -2.3838    0.0000 C   0  0
    5.6565   -3.7945    0.0000 O   0  0
    4.6921   -4.9435    0.0000 C   0  0
    8.0277    1.0704    0.0000 N   0  0
    8.9864    2.2240    0.0000 C   0  0
   10.4648    1.9705    0.0000 C   0  0
   11.4241    3.1248    0.0000 C   0  0
   10.9052    4.5322    0.0000 F   0  0
   12.9024    2.8709    0.0000 F   0  0
   12.3833    4.2780    0.0000 F   0  0
   12.0186   -2.2522    0.0000 C   0  0
  1  2  2  0
  2  3  1  0
  3  4  2  0
  3  5  1  0
  5  6  1  0
  6  7  2  0
  7  8  1  0
  8  9  2  0
  9 10  1  0
 10 11  1  0
 11 12  1  0
 12 13  2  0
 13 14  1  0
 14 15  1  0
 15 16  1  0
 16 17  2  0
 17 18  1  0
 18 19  2  0
 19 20  1  0
 20 21  1  0
 21 22  1  0
 22 23  1  0
 23 24  1  0
 24 25  1  0
 25 26  1  0
 26 20  1  0
 19 27  1  0
 27 28  2  0
 28 16  1  0
 28 29  1  0
 29 30  1  0
 14 31  2  0
 31 32  1  0
 32 33  2  0
 33 12  1  0
 33 34  1  0
 34 35  1  0
 34 36  1  0
 34 37  1  0
 10 38  2  0
 38  6  1  0
M  END
> <Name>
CHEMBL3699612

> <pChEMBL_Value>
7.70

$$$$
CHEMBL3699585
  SciTegic08122012322D

 41 44  0  0  0  0            999 V2000
    7.6472   -5.4375    0.0000 C   0  0
    9.1243   -5.6982    0.0000 C   0  0
   10.0899   -4.5492    0.0000 C   0  0
    9.5775   -3.1394    0.0000 O   0  0
   11.5679   -4.8100    0.0000 N   0  0
   12.5335   -3.6610    0.0000 C   0  0
   14.0111   -3.9196    0.0000 C   0  0
   14.9737   -2.7693    0.0000 C   0  0
   14.4589   -1.3604    0.0000 C   0  0
   12.9813   -1.1018    0.0000 C   0  0
   12.4633    0.3068    0.0000 N   0  0
   10.9846    0.5635    0.0000 C   0  0
   10.0259   -0.5902    0.0000 N   0  0
    8.5474   -0.3368    0.0000 C   0  0
    7.5858   -1.4891    0.0000 N   0  0
    6.1069   -1.2335    0.0000 C   0  0
    5.5920    0.1754    0.0000 C   0  0
    4.1145    0.4339    0.0000 C   0  0
    3.1484   -0.7186    0.0000 C   0  0
    1.6852   -0.3846    0.0000 N   0  0
    1.3514    1.0778    0.0000 C   0  0
    0.0000    1.7286    0.0000 C   0  0
   -1.3515    1.0777    0.0000 C   0  0
   -1.6852   -0.3847    0.0000 N   0  0
   -3.1497   -0.7220    0.0000 C   0  0
   -4.1718    0.3758    0.0000 C   0  0
   -3.5898   -2.1560    0.0000 O   0  0
   -0.7500   -1.5574    0.0000 C   0  0
    0.7500   -1.5574    0.0000 C   0  0
    3.6667   -2.1252    0.0000 C   0  0
    5.1442   -2.3838    0.0000 C   0  0
    5.6565   -3.7945    0.0000 O   0  0
    4.6921   -4.9435    0.0000 C   0  0
    8.0277    1.0704    0.0000 N   0  0
    8.9864    2.2240    0.0000 C   0  0
   10.4648    1.9705    0.0000 C   0  0
   11.4241    3.1248    0.0000 C   0  0
   10.9052    4.5322    0.0000 F   0  0
   12.9024    2.8709    0.0000 F   0  0
   12.3833    4.2780    0.0000 F   0  0
   12.0186   -2.2522    0.0000 C   0  0
  1  2  2  0
  2  3  1  0
  3  4  2  0
  3  5  1  0
  5  6  1  0
  6  7  2  0
  7  8  1  0
  8  9  2  0
  9 10  1  0
 10 11  1  0
 11 12  1  0
 12 13  2  0
 13 14  1  0
 14 15  1  0
 15 16  1  0
 16 17  2  0
 17 18  1  0
 18 19  2  0
 19 20  1  0
 20 21  1  0
 21 22  1  0
 22 23  1  0
 23 24  1  0
 24 25  1  0
 25 26  1  0
 25 27  2  0
 24 28  1  0
 28 29  1  0
 29 20  1  0
 19 30  1  0
 30 31  2  0
 31 16  1  0
 31 32  1  0
 32 33  1  0
 14 34  2  0
 34 35  1  0
 35 36  2  0
 36 12  1  0
 36 37  1  0
 37 38  1  0
 37 39  1  0
 37 40  1  0
 10 41  2  0
 41  6  1  0
M  END
> <Name>
CHEMBL3699585

> <pChEMBL_Value>
7.70

$$$$
CHEMBL3699621
  SciTegic08122012322D

 44 47  0  0  1  0            999 V2000
    3.8912   -5.2570    0.0000 C   0  0
    3.8933   -3.7570    0.0000 C   0  0
    2.5951   -3.0039    0.0000 C   0  0
    1.2948   -3.7516    0.0000 O   0  0
    2.5973   -1.5031    0.0000 N   0  0
    1.2990   -0.7500    0.0000 C   0  0
    1.2990    0.7500    0.0000 C   0  0
    0.0000    1.5000    0.0000 C   0  0
   -1.2990    0.7500    0.0000 C   0  0
   -1.2990   -0.7500    0.0000 C   0  0
   -2.5972   -1.5031    0.0000 N   0  0
   -2.5951   -3.0039    0.0000 C   0  0
   -1.2935   -3.7495    0.0000 N   0  0
   -1.2883   -5.2495    0.0000 C   0  0
    0.0125   -5.9981    0.0000 N   0  0
    0.0156   -7.4989    0.0000 C   0  0
   -1.2835   -8.2490    0.0000 C   0  0
   -1.2835   -9.7490    0.0000 C   0  0
    0.0156  -10.4990    0.0000 C   0  0
    0.0156  -11.9998    0.0000 N   0  0
   -1.2823  -12.7520    0.0000 C   0  0
   -1.2799  -14.2520    0.0000 C   0  0
    0.0203  -14.9999    0.0000 N   0  0
    0.0196  -16.5007    0.0000 C   0  0
    1.3186  -17.2509    0.0000 C   0  0
   -1.2793  -17.2509    0.0000 O   0  0
    1.3182  -14.2478    0.0000 C   0  0  2  0  0  0
    2.6207  -14.9935    0.0000 C   0  0
    2.6257  -16.4935    0.0000 O   0  0
    3.9182  -14.2392    0.0000 O   0  0
    5.2199  -14.9844    0.0000 C   0  0
    1.3158  -12.7478    0.0000 C   0  0
    1.3146   -9.7490    0.0000 C   0  0
    1.3146   -8.2490    0.0000 C   0  0
    2.6159   -7.5013    0.0000 O   0  0
    3.9139   -8.2532    0.0000 C   0  0
   -2.5847   -6.0040    0.0000 N   0  0
   -3.8863   -5.2585    0.0000 C   0  0
   -3.8915   -3.7585    0.0000 C   0  0
   -5.1939   -3.0126    0.0000 C   0  0
   -6.4908   -3.7663    0.0000 F   0  0
   -5.1987   -1.5126    0.0000 F   0  0
   -6.4952   -2.2666    0.0000 F   0  0
    0.0000   -1.5000    0.0000 C   0  0
  1  2  2  0
  2  3  1  0
  3  4  2  0
  3  5  1  0
  5  6  1  0
  6  7  2  0
  7  8  1  0
  8  9  2  0
  9 10  1  0
 10 11  1  0
 11 12  1  0
 12 13  2  0
 13 14  1  0
 14 15  1  0
 15 16  1  0
 16 17  2  0
 17 18  1  0
 18 19  2  0
 19 20  1  0
 20 21  1  0
 21 22  1  0
 22 23  1  0
 23 24  1  0
 24 25  1  0
 24 26  2  0
 23 27  1  0
 27 28  1  1
 28 29  2  0
 28 30  1  0
 30 31  1  0
 27 32  1  0
 32 20  1  0
 19 33  1  0
 33 34  2  0
 34 16  1  0
 34 35  1  0
 35 36  1  0
 14 37  2  0
 37 38  1  0
 38 39  2  0
 39 12  1  0
 39 40  1  0
 40 41  1  0
 40 42  1  0
 40 43  1  0
 10 44  2  0
 44  6  1  0
M  END
> <Name>
CHEMBL3699621

> <pChEMBL_Value>
7.70

$$$$
CHEMBL4227552
  SciTegic08122012322D

 39 42  0  0  0  0            999 V2000
    6.4983   -0.7627    0.0000 C   0  0
    5.1972   -1.5092    0.0000 C   0  0
    3.8990   -0.7562    0.0000 C   0  0
    3.9026    0.7438    0.0000 O   0  0
    2.5973   -1.5031    0.0000 N   0  0
    1.2990   -0.7500    0.0000 C   0  0
    1.2990    0.7500    0.0000 C   0  0
    0.0000    1.5000    0.0000 C   0  0
   -1.2990    0.7500    0.0000 C   0  0
   -1.2990   -0.7500    0.0000 C   0  0
   -2.5972   -1.5031    0.0000 N   0  0
   -2.5951   -3.0039    0.0000 C   0  0
   -1.2948   -3.7517    0.0000 O   0  0
   -3.8933   -3.7570    0.0000 N   0  0
   -3.8912   -5.2578    0.0000 C   0  0
   -5.1876   -6.0124    0.0000 C   0  0
   -5.1824   -7.5124    0.0000 C   0  0
   -3.8808   -8.2579    0.0000 N   0  0
   -2.5843   -7.5034    0.0000 C   0  0
   -1.2804   -8.2467    0.0000 N   0  0
    0.0156   -7.4899    0.0000 C   0  0
    0.0053   -5.9899    0.0000 C   0  0
    1.2991   -5.2309    0.0000 C   0  0
    2.6033   -5.9719    0.0000 C   0  0
    3.8978   -5.2125    0.0000 N   0  0
    3.8899   -3.7125    0.0000 C   0  0
    5.1849   -2.9556    0.0000 C   0  0
    6.4879   -3.6987    0.0000 N   0  0
    7.7852   -2.9440    0.0000 C   0  0
    9.0879   -3.6893    0.0000 C   0  0
   10.3845   -2.9351    0.0000 F   0  0
    6.4959   -5.1986    0.0000 C   0  0
    5.2009   -5.9556    0.0000 C   0  0
    2.6137   -7.4719    0.0000 C   0  0
    1.3199   -8.2308    0.0000 C   0  0
    1.3334   -9.7316    0.0000 O   0  0
    2.6387  -10.4707    0.0000 C   0  0
   -2.5895   -6.0034    0.0000 N   0  0
    0.0000   -1.5000    0.0000 C   0  0
  1  2  2  0
  2  3  1  0
  3  4  2  0
  3  5  1  0
  5  6  1  0
  6  7  2  0
  7  8  1  0
  8  9  2  0
  9 10  1  0
 10 11  1  0
 11 12  1  0
 12 13  2  0
 12 14  1  0
 14 15  1  0
 15 16  2  0
 16 17  1  0
 17 18  2  0
 18 19  1  0
 19 20  1  0
 20 21  1  0
 21 22  2  0
 22 23  1  0
 23 24  2  0
 24 25  1  0
 25 26  1  0
 26 27  1  0
 27 28  1  0
 28 29  1  0
 29 30  1  0
 30 31  1  0
 28 32  1  0
 32 33  1  0
 33 25  1  0
 24 34  1  0
 34 35  2  0
 35 21  1  0
 35 36  1  0
 36 37  1  0
 19 38  2  0
 38 15  1  0
 10 39  2  0
 39  6  1  0
M  END
> <Name>
CHEMBL4227552

> <pChEMBL_Value>
7.66

$$$$
CHEMBL3219128
  SciTegic08122012322D

 42 46  0  0  0  0            999 V2000
    9.1232   -5.7304    0.0000 C   0  0
    7.6464   -5.4679    0.0000 C   0  0
    7.1341   -4.0572    0.0000 C   0  0
    8.0995   -2.9091    0.0000 O   0  0
    5.6565   -3.7945    0.0000 N   0  0
    5.1442   -2.3838    0.0000 C   0  0
    6.1069   -1.2335    0.0000 C   0  0
    5.5920    0.1754    0.0000 C   0  0
    4.1145    0.4339    0.0000 C   0  0
    3.1484   -0.7186    0.0000 C   0  0
    1.6852   -0.3846    0.0000 N   0  0
    0.7500   -1.5574    0.0000 C   0  0
    1.4008   -2.9088    0.0000 O   0  0
   -0.7500   -1.5574    0.0000 C   0  0
   -1.4008   -2.9089    0.0000 C   0  0
   -1.6852   -0.3847    0.0000 N   0  0
   -3.1476   -0.7184    0.0000 C   0  0
   -1.3515    1.0777    0.0000 C   0  0
   -2.5242    2.0130    0.0000 O   0  0
    0.0000    1.7286    0.0000 C   0  0
   -0.1116    3.2255    0.0000 C   0  0
    1.1278    4.0705    0.0000 N   0  0
    2.4793    3.4197    0.0000 C   0  0
    3.7210    4.2626    0.0000 N   0  0
    5.0723    3.6095    0.0000 C   0  0
    5.1793    2.1132    0.0000 C   0  0
    6.5285    1.4577    0.0000 C   0  0
    7.7708    2.2984    0.0000 C   0  0
    9.1206    1.6426    0.0000 N   0  0
    9.2301    0.1465    0.0000 C   0  0
   10.5803   -0.5068    0.0000 C   0  0
   11.8212    0.3359    0.0000 N   0  0
   13.1715   -0.3175    0.0000 C   0  0
   11.7119    1.8319    0.0000 C   0  0
   10.3617    2.4852    0.0000 C   0  0
    7.6638    3.7946    0.0000 C   0  0
    6.3146    4.4501    0.0000 C   0  0
    6.2108    5.9473    0.0000 O   0  0
    7.4543    6.7862    0.0000 C   0  0
    2.5913    1.9239    0.0000 N   0  0
    1.3514    1.0777    0.0000 C   0  0
    3.6667   -2.1252    0.0000 C   0  0
  1  2  2  0
  2  3  1  0
  3  4  2  0
  3  5  1  0
  5  6  1  0
  6  7  2  0
  7  8  1  0
  8  9  2  0
  9 10  1  0
 10 11  1  0
 11 12  1  0
 12 13  2  0
 12 14  1  0
 14 15  1  0
 14 16  1  0
 16 17  1  0
 16 18  1  0
 18 19  2  0
 18 20  1  0
 20 21  2  0
 21 22  1  0
 22 23  2  0
 23 24  1  0
 24 25  1  0
 25 26  2  0
 26 27  1  0
 27 28  2  0
 28 29  1  0
 29 30  1  0
 30 31  1  0
 31 32  1  0
 32 33  1  0
 32 34  1  0
 34 35  1  0
 35 29  1  0
 28 36  1  0
 36 37  2  0
 37 25  1  0
 37 38  1  0
 38 39  1  0
 23 40  1  0
 40 41  2  0
 41 20  1  0
 41 11  1  0
 10 42  2  0
 42  6  1  0
M  END
> <Name>
CHEMBL3219128

> <pChEMBL_Value>
7.66

$$$$
CHEMBL448929
  SciTegic08122012322D

 59 66  0  0  0  0            999 V2000
   -1.7425    0.2854    0.0000 C   0  0
   -3.1800    0.7139    0.0000 C   0  0
   -4.2711   -0.3166    0.0000 C   0  0
   -3.9214   -1.7752    0.0000 C   0  0
   -5.0098   -2.8075    0.0000 C   0  0
   -4.6570   -4.2663    0.0000 N   0  0
   -3.2175   -4.6910    0.0000 C   0  0
   -2.8628   -6.1485    0.0000 N   0  0
   -1.4233   -6.5700    0.0000 C   0  0
   -0.3384   -5.5341    0.0000 C   0  0
   -0.6928   -4.0817    0.0000 C   0  0
    0.3114   -2.9665    0.0000 C   0  0
    1.8032   -3.1233    0.0000 C   0  0
    2.5536   -4.4230    0.0000 C   0  0
    1.9048   -5.7699    0.0000 C   0  0
    2.7505   -7.0088    0.0000 C   0  0
    4.2462   -6.8959    0.0000 C   0  0
    4.8963   -5.5441    0.0000 C   0  0
    6.3927   -5.4281    0.0000 C   0  0
    7.2405   -6.6656    0.0000 O   0  0
    7.0412   -4.0747    0.0000 N   0  0
    8.5376   -3.9587    0.0000 C   0  0
    9.1878   -2.6069    0.0000 C   0  0
    8.3421   -1.3679    0.0000 F   0  0
   10.6835   -2.4940    0.0000 C   0  0
   11.5292   -3.7329    0.0000 C   0  0
   10.8791   -5.0847    0.0000 C   0  0
    9.3833   -5.1976    0.0000 C   0  0
    8.7333   -6.5494    0.0000 F   0  0
    4.0507   -4.3052    0.0000 C   0  0
    2.4133   -1.7530    0.0000 N   0  0
    1.2990   -0.7500    0.0000 C   0  0
    1.2990    0.7500    0.0000 C   0  0
    0.0000    1.5000    0.0000 C   0  0
   -1.2990    0.7500    0.0000 C   0  0
   -1.2990   -0.7500    0.0000 C   0  0
    0.0000   -1.5000    0.0000 N   0  0
   -2.1327   -3.6551    0.0000 N   0  0
   -6.4479   -2.3809    0.0000 C   0  0
   -7.5391   -3.4113    0.0000 O   0  0
   -8.9766   -2.9827    0.0000 C   0  0
   -6.7976   -0.9222    0.0000 C   0  0
   -5.7092    0.1100    0.0000 C   0  0
   -6.0590    1.5694    0.0000 N   0  0
   -7.4965    1.9983    0.0000 C   0  0
   -7.8438    3.4575    0.0000 C   0  0
   -6.7538    4.4879    0.0000 C   0  0
   -7.1013    5.9479    0.0000 N   0  0
   -8.5380    6.3791    0.0000 C   0  0
   -8.8831    7.8389    0.0000 C   0  0
   -7.7914    8.8676    0.0000 N   0  0
   -8.1366   10.3281    0.0000 S   0  0
   -7.0446   11.3565    0.0000 C   0  0
   -9.5730   10.7601    0.0000 O   0  0
   -8.4809   11.7881    0.0000 O   0  0
   -6.3547    8.4365    0.0000 C   0  0
   -6.0096    6.9767    0.0000 C   0  0
   -5.3163    4.0591    0.0000 C   0  0
   -4.9690    2.5999    0.0000 C   0  0
  1  2  1  0
  2  3  1  0
  3  4  2  0
  4  5  1  0
  5  6  1  0
  6  7  1  0
  7  8  2  0
  8  9  1  0
  9 10  2  0
 10 11  1  0
 11 12  1  0
 12 13  2  0
 13 14  1  0
 14 15  2  0
 15 16  1  0
 16 17  2  0
 17 18  1  0
 18 19  1  0
 19 20  2  0
 19 21  1  0
 21 22  1  0
 22 23  2  0
 23 24  1  0
 23 25  1  0
 25 26  2  0
 26 27  1  0
 27 28  2  0
 28 22  1  0
 28 29  1  0
 18 30  2  0
 30 14  1  0
 13 31  1  0
 31 32  2  0
 32 33  1  0
 33 34  2  0
 34 35  1  0
 35 36  2  0
 36 37  1  0
 37 12  1  0
 37 32  1  0
 11 38  2  0
 38  7  1  0
  5 39  2  0
 39 40  1  0
 40 41  1  0
 39 42  1  0
 42 43  2  0
 43  3  1  0
 43 44  1  0
 44 45  1  0
 45 46  1  0
 46 47  1  0
 47 48  1  0
 48 49  1  0
 49 50  1  0
 50 51  1  0
 51 52  1  0
 52 53  1  0
 52 54  2  0
 52 55  2  0
 51 56  1  0
 56 57  1  0
 57 48  1  0
 47 58  1  0
 58 59  1  0
 59 44  1  0
M  END
> <Name>
CHEMBL448929

> <pChEMBL_Value>
7.66

$$$$
CHEMBL4087375
  SciTegic08122012322D

 44 49  0  0  1  0            999 V2000
    5.1828   -6.0130    0.0000 C   0  0
    3.8864   -5.2585    0.0000 C   0  0
    3.8915   -3.7585    0.0000 C   0  0
    2.5951   -3.0039    0.0000 C   0  0
    2.5973   -1.5031    0.0000 N   0  0
    1.2990   -0.7500    0.0000 C   0  0
    1.2990    0.7500    0.0000 N   0  0
    0.0000    1.5000    0.0000 C   0  0
   -1.2990    0.7500    0.0000 C   0  0
   -1.2990   -0.7500    0.0000 C   0  0
    0.0000   -1.5000    0.0000 N   0  0
   -2.5981   -1.5000    0.0000 N   0  0
   -2.5981   -3.0008    0.0000 C   0  0  1  0  0  0
   -1.3859   -3.8625    0.0000 C   0  0
   -1.8517   -5.2884    0.0000 C   0  0
   -3.3517   -5.2860    0.0000 N   0  0
   -4.2368   -6.4949    0.0000 C   0  0
   -3.6312   -7.8672    0.0000 O   0  0
   -5.7289   -6.3335    0.0000 C   0  0
   -6.6155   -7.5444    0.0000 C   0  0
   -8.1068   -7.3831    0.0000 C   0  0
   -6.0100   -8.9168    0.0000 C   0  0
   -3.8130   -3.8587    0.0000 C   0  0
   -3.8971   -0.7500    0.0000 C   0  0
   -5.1961   -1.5000    0.0000 O   0  0
   -3.8971    0.7500    0.0000 N   0  0
   -5.1968    1.5004    0.0000 C   0  0
   -5.1945    3.0004    0.0000 C   0  0
   -6.4924    3.7525    0.0000 C   0  0
   -7.7926    3.0045    0.0000 C   0  0
   -7.7950    1.5045    0.0000 C   0  0
   -6.4971    0.7525    0.0000 C   0  0
   -6.4996   -0.7475    0.0000 Cl  0  0
   -2.5981    1.5000    0.0000 C   0  0
    1.2935   -3.7495    0.0000 C   0  0
    1.2883   -5.2495    0.0000 C   0  0
    2.5847   -6.0040    0.0000 C   0  0
    2.5795   -7.5047    0.0000 N   0  0
    1.2791   -8.2524    0.0000 C   0  0
    1.2763   -9.7524    0.0000 C   0  0
    2.5739  -10.5048    0.0000 N   0  0
    2.5711  -12.0048    0.0000 C   0  0
    3.8744   -9.7573    0.0000 C   0  0
    3.8772   -8.2573    0.0000 C   0  0
  1  2  1  0
  2  3  2  0
  3  4  1  0
  4  5  1  0
  5  6  1  0
  6  7  2  0
  7  8  1  0
  8  9  2  0
  9 10  1  0
 10 11  2  0
 11  6  1  0
 10 12  1  0
 13 12  1  1
 13 14  1  0
 14 15  1  0
 15 16  1  0
 16 17  1  0
 17 18  2  0
 17 19  1  0
 19 20  1  0
 20 21  1  0
 20 22  1  0
 16 23  1  0
 23 13  1  0
 12 24  1  0
 24 25  2  0
 24 26  1  0
 26 27  1  0
 27 28  2  0
 28 29  1  0
 29 30  2  0
 30 31  1  0
 31 32  2  0
 32 27  1  0
 32 33  1  0
 26 34  1  0
 34  9  1  0
  4 35  2  0
 35 36  1  0
 36 37  2  0
 37  2  1  0
 37 38  1  0
 38 39  1  0
 39 40  1  0
 40 41  1  0
 41 42  1  0
 41 43  1  0
 43 44  1  0
 44 38  1  0
M  END
> <Name>
CHEMBL4087375

> <pChEMBL_Value>
7.65

$$$$
CHEMBL4098591
  SciTegic08122012322D

 42 47  0  0  1  0            999 V2000
    4.5246   -7.2506    0.0000 C   0  0
    3.9195   -5.8781    0.0000 C   0  0
    4.8054   -4.6666    0.0000 C   0  0
    6.2966   -4.8284    0.0000 O   0  0
    4.2010   -3.2956    0.0000 N   0  0
    4.9531   -1.9978    0.0000 C   0  0
    3.9511   -0.8815    0.0000 C   0  0
    2.5987   -1.5004    0.0000 C   0  0  1  0  0  0
    1.2990   -0.7500    0.0000 N   0  0
    0.0000   -1.5000    0.0000 C   0  0
    0.0000   -3.0000    0.0000 O   0  0
   -1.2990   -0.7500    0.0000 N   0  0
   -2.5987   -1.5004    0.0000 C   0  0
   -3.8967   -0.7484    0.0000 C   0  0
   -5.1969   -1.4963    0.0000 C   0  0
   -5.1993   -2.9963    0.0000 C   0  0
   -3.9014   -3.7484    0.0000 C   0  0
   -2.6012   -3.0004    0.0000 C   0  0
   -1.3034   -3.7525    0.0000 Cl  0  0
   -1.2990    0.7500    0.0000 C   0  0
    0.0000    1.5000    0.0000 C   0  0
    0.0000    3.0000    0.0000 C   0  0
    1.2990    3.7500    0.0000 N   0  0
    2.5981    3.0000    0.0000 C   0  0
    3.8994    3.7477    0.0000 N   0  0
    5.1981    2.9955    0.0000 C   0  0
    6.4997    3.7409    0.0000 C   0  0
    7.7962    2.9864    0.0000 C   0  0
    7.7910    1.4864    0.0000 C   0  0
    9.0881    0.7316    0.0000 N   0  0
   10.3910    1.4750    0.0000 C   0  0
   11.6862    0.7184    0.0000 C   0  0
   11.6787   -0.7816    0.0000 N   0  0
   12.9739   -1.5381    0.0000 C   0  0
   10.3759   -1.5250    0.0000 C   0  0
    9.0806   -0.7685    0.0000 C   0  0
    6.4894    0.7409    0.0000 C   0  0
    6.4842   -0.7590    0.0000 C   0  0
    5.1929    1.4954    0.0000 C   0  0
    2.5981    1.5000    0.0000 N   0  0
    1.2990    0.7500    0.0000 C   0  0
    2.7343   -2.9815    0.0000 C   0  0
  1  2  1  0
  2  3  1  0
  3  4  2  0
  3  5  1  0
  5  6  1  0
  6  7  1  0
  7  8  1  0
  8  9  1  6
  9 10  1  0
 10 11  2  0
 10 12  1  0
 12 13  1  0
 13 14  2  0
 14 15  1  0
 15 16  2  0
 16 17  1  0
 17 18  2  0
 18 13  1  0
 18 19  1  0
 12 20  1  0
 20 21  1  0
 21 22  2  0
 22 23  1  0
 23 24  2  0
 24 25  1  0
 25 26  1  0
 26 27  2  0
 27 28  1  0
 28 29  2  0
 29 30  1  0
 30 31  1  0
 31 32  1  0
 32 33  1  0
 33 34  1  0
 33 35  1  0
 35 36  1  0
 36 30  1  0
 29 37  1  0
 37 38  1  0
 37 39  2  0
 39 26  1  0
 24 40  1  0
 40 41  2  0
 41 21  1  0
 41  9  1  0
  8 42  1  0
 42  5  1  0
M  END
> <Name>
CHEMBL4098591

> <pChEMBL_Value>
7.63

$$$$
CHEMBL3219129
  SciTegic08122012322D

 44 48  0  0  0  0            999 V2000
    9.1232   -5.7304    0.0000 C   0  0
    7.6464   -5.4679    0.0000 C   0  0
    7.1341   -4.0572    0.0000 C   0  0
    8.0995   -2.9091    0.0000 O   0  0
    5.6565   -3.7945    0.0000 N   0  0
    5.1442   -2.3838    0.0000 C   0  0
    6.1069   -1.2335    0.0000 C   0  0
    5.5920    0.1754    0.0000 C   0  0
    4.1145    0.4339    0.0000 C   0  0
    3.1484   -0.7186    0.0000 C   0  0
    1.6852   -0.3846    0.0000 N   0  0
    0.7500   -1.5574    0.0000 C   0  0
    1.4008   -2.9088    0.0000 O   0  0
   -0.7500   -1.5574    0.0000 C   0  0
   -1.4048   -2.9100    0.0000 C   0  0
   -2.9008   -3.0200    0.0000 C   0  0
   -0.5620   -4.1508    0.0000 C   0  0
   -1.6852   -0.3847    0.0000 N   0  0
   -3.1476   -0.7184    0.0000 C   0  0
   -1.3515    1.0777    0.0000 C   0  0
   -2.5242    2.0130    0.0000 O   0  0
    0.0000    1.7286    0.0000 C   0  0
   -0.1116    3.2255    0.0000 C   0  0
    1.1278    4.0705    0.0000 N   0  0
    2.4793    3.4197    0.0000 C   0  0
    3.7210    4.2626    0.0000 N   0  0
    5.0723    3.6095    0.0000 C   0  0
    5.1793    2.1132    0.0000 C   0  0
    6.5285    1.4577    0.0000 C   0  0
    7.7708    2.2984    0.0000 C   0  0
    9.1206    1.6426    0.0000 N   0  0
    9.2301    0.1465    0.0000 C   0  0
   10.5803   -0.5068    0.0000 C   0  0
   11.8212    0.3359    0.0000 N   0  0
   13.1715   -0.3175    0.0000 C   0  0
   11.7119    1.8319    0.0000 C   0  0
   10.3617    2.4852    0.0000 C   0  0
    7.6638    3.7946    0.0000 C   0  0
    6.3146    4.4501    0.0000 C   0  0
    6.2108    5.9473    0.0000 O   0  0
    7.4543    6.7862    0.0000 C   0  0
    2.5913    1.9239    0.0000 N   0  0
    1.3514    1.0777    0.0000 C   0  0
    3.6667   -2.1252    0.0000 C   0  0
  1  2  2  0
  2  3  1  0
  3  4  2  0
  3  5  1  0
  5  6  1  0
  6  7  2  0
  7  8  1  0
  8  9  2  0
  9 10  1  0
 10 11  1  0
 11 12  1  0
 12 13  2  0
 12 14  1  0
 14 15  1  0
 15 16  1  0
 15 17  1  0
 14 18  1  0
 18 19  1  0
 18 20  1  0
 20 21  2  0
 20 22  1  0
 22 23  2  0
 23 24  1  0
 24 25  2  0
 25 26  1  0
 26 27  1  0
 27 28  2  0
 28 29  1  0
 29 30  2  0
 30 31  1  0
 31 32  1  0
 32 33  1  0
 33 34  1  0
 34 35  1  0
 34 36  1  0
 36 37  1  0
 37 31  1  0
 30 38  1  0
 38 39  2  0
 39 27  1  0
 39 40  1  0
 40 41  1  0
 25 42  1  0
 42 43  2  0
 43 22  1  0
 43 11  1  0
 10 44  2  0
 44  6  1  0
M  END
> <Name>
CHEMBL3219129

> <pChEMBL_Value>
7.61

$$$$
CHEMBL2032378
  SciTegic08122012322D

 38 42  0  0  0  0            999 V2000
    6.4757   -8.2656    0.0000 C   0  0
    5.1799   -7.5101    0.0000 C   0  0
    5.1854   -6.0093    0.0000 C   0  0
    6.4874   -5.2644    0.0000 O   0  0
    3.8888   -5.2533    0.0000 N   0  0
    3.8943   -3.7525    0.0000 C   0  0
    5.1945   -3.0045    0.0000 C   0  0
    5.1969   -1.5045    0.0000 C   0  0
    3.8991   -0.7525    0.0000 C   0  0
    2.5987   -1.5004    0.0000 C   0  0
    1.2990   -0.7500    0.0000 N   0  0
    0.0000   -1.5000    0.0000 C   0  0
    0.0000   -3.0000    0.0000 O   0  0
   -1.2990   -0.7500    0.0000 N   0  0
   -2.5981   -1.5000    0.0000 C   0  0
   -1.2990    0.7500    0.0000 C   0  0
    0.0000    1.5000    0.0000 C   0  0
    0.0000    3.0000    0.0000 C   0  0
    1.2990    3.7500    0.0000 N   0  0
    2.5981    3.0000    0.0000 C   0  0
    3.8994    3.7477    0.0000 N   0  0
    5.1981    2.9955    0.0000 C   0  0
    5.1929    1.4954    0.0000 C   0  0
    6.4894    0.7409    0.0000 C   0  0
    7.7910    1.4865    0.0000 C   0  0
    9.0881    0.7316    0.0000 N   0  0
    9.0854   -0.7685    0.0000 C   0  0
   10.3830   -1.5209    0.0000 C   0  0
   11.6835   -0.7733    0.0000 C   0  0
   11.6863    0.7267    0.0000 C   0  0
   10.3886    1.4791    0.0000 C   0  0
    7.7962    2.9864    0.0000 C   0  0
    6.4997    3.7409    0.0000 C   0  0
    6.5081    5.2417    0.0000 O   0  0
    7.8108    5.9853    0.0000 C   0  0
    2.5981    1.5000    0.0000 N   0  0
    1.2990    0.7500    0.0000 C   0  0
    2.5965   -3.0004    0.0000 C   0  0
  1  2  2  0
  2  3  1  0
  3  4  2  0
  3  5  1  0
  5  6  1  0
  6  7  2  0
  7  8  1  0
  8  9  2  0
  9 10  1  0
 10 11  1  0
 11 12  1  0
 12 13  2  0
 12 14  1  0
 14 15  1  0
 14 16  1  0
 16 17  1  0
 17 18  2  0
 18 19  1  0
 19 20  2  0
 20 21  1  0
 21 22  1  0
 22 23  2  0
 23 24  1  0
 24 25  2  0
 25 26  1  0
 26 27  1  0
 27 28  1  0
 28 29  1  0
 29 30  1  0
 30 31  1  0
 31 26  1  0
 25 32  1  0
 32 33  2  0
 33 22  1  0
 33 34  1  0
 34 35  1  0
 20 36  1  0
 36 37  2  0
 37 17  1  0
 37 11  1  0
 10 38  2  0
 38  6  1  0
M  END
> <Name>
CHEMBL2032378

> <pChEMBL_Value>
7.53

$$$$
CHEMBL3353411
  SciTegic08122012322D

 36 39  0  0  0  0            999 V2000
   -2.8827  -11.5495    0.0000 C   0  0
   -4.3226  -11.1290    0.0000 C   0  0
   -4.6795   -9.6712    0.0000 C   0  0
   -3.5958   -8.6342    0.0000 O   0  0
   -6.1202   -9.2506    0.0000 N   0  0
   -6.4771   -7.7928    0.0000 C   0  0
   -5.3916   -6.7576    0.0000 C   0  0
   -5.7452   -5.2998    0.0000 C   0  0
   -4.6570   -4.2663    0.0000 N   0  0
   -3.2175   -4.6910    0.0000 C   0  0
   -2.8628   -6.1485    0.0000 N   0  0
   -1.4233   -6.5700    0.0000 C   0  0
   -0.3384   -5.5341    0.0000 C   0  0
   -0.6928   -4.0817    0.0000 C   0  0
    0.3114   -2.9665    0.0000 C   0  0
    1.8032   -3.1233    0.0000 C   0  0
    2.4133   -1.7530    0.0000 N   0  0
    1.2990   -0.7500    0.0000 C   0  0
    1.2990    0.7500    0.0000 C   0  0
    0.0000    1.5000    0.0000 C   0  0
   -1.2990    0.7500    0.0000 C   0  0
   -1.2990   -0.7500    0.0000 C   0  0
    0.0000   -1.5000    0.0000 C   0  0
   -2.1327   -3.6551    0.0000 N   0  0
   -7.1846   -4.8774    0.0000 C   0  0
   -7.5416   -3.4196    0.0000 O   0  0
   -8.9814   -2.9992    0.0000 C   0  0
   -8.2701   -5.9126    0.0000 C   0  0
   -7.9164   -7.3703    0.0000 C   0  0
   -9.0046   -8.4038    0.0000 N   0  0
   -8.6534   -9.8621    0.0000 C   0  0
  -10.4441   -7.9790    0.0000 C   0  0
  -11.5323   -9.0126    0.0000 C   0  0
  -12.9718   -8.5878    0.0000 N   0  0
  -14.0594   -9.6207    0.0000 C   0  0
  -13.3230   -7.1295    0.0000 C   0  0
  1  2  2  0
  2  3  1  0
  3  4  2  0
  3  5  1  0
  5  6  1  0
  6  7  2  0
  7  8  1  0
  8  9  1  0
  9 10  1  0
 10 11  2  0
 11 12  1  0
 12 13  2  0
 13 14  1  0
 14 15  1  0
 15 16  2  0
 16 17  1  0
 17 18  1  0
 18 19  2  0
 19 20  1  0
 20 21  2  0
 21 22  1  0
 22 23  2  0
 23 15  1  0
 23 18  1  0
 14 24  2  0
 24 10  1  0
  8 25  2  0
 25 26  1  0
 26 27  1  0
 25 28  1  0
 28 29  2  0
 29  6  1  0
 29 30  1  0
 30 31  1  0
 30 32  1  0
 32 33  1  0
 33 34  1  0
 34 35  1  0
 34 36  1  0
M  END
> <Name>
CHEMBL3353411

> <pChEMBL_Value>
7.48

$$$$
CHEMBL4162767
  SciTegic08122012322D

 39 42  0  0  0  0            999 V2000
    0.0311   10.4969    0.0000 C   0  0
   -1.2711    9.7524    0.0000 C   0  0
   -1.2785    8.2516    0.0000 C   0  0
    0.0171    7.4957    0.0000 O   0  0
   -2.5814    7.5068    0.0000 N   0  0
   -2.5887    6.0060    0.0000 C   0  0
   -1.2918    5.2523    0.0000 C   0  0
   -1.2961    3.7523    0.0000 C   0  0
    0.0031    3.0008    0.0000 N   0  0
    1.3039    3.7494    0.0000 C   0  0
    1.3092    5.2494    0.0000 N   0  0
    2.6108    5.9949    0.0000 C   0  0
    3.9072    5.2405    0.0000 C   0  0
    3.9020    3.7405    0.0000 C   0  0
    5.1976    2.9829    0.0000 N   0  0
    5.1903    1.4821    0.0000 C   0  0
    3.8861    0.7410    0.0000 C   0  0
    3.8758   -0.7590    0.0000 C   0  0
    5.1696   -1.5179    0.0000 C   0  0
    6.4738   -0.7769    0.0000 C   0  0
    6.4841    0.7230    0.0000 C   0  0
    7.7890    1.4644    0.0000 N   0  0
    7.9395    2.9440    0.0000 N   0  0
    9.4093    3.2434    0.0000 C   0  0
   10.1482    1.9380    0.0000 C   0  0
    9.1351    0.8319    0.0000 N   0  0
    2.6004    2.9949    0.0000 N   0  0
   -2.5973    3.0060    0.0000 C   0  0
   -2.6046    1.5052    0.0000 O   0  0
   -3.9068    0.7607    0.0000 C   0  0
   -3.8942    3.7597    0.0000 C   0  0
   -3.8899    5.2597    0.0000 C   0  0
   -5.1891    6.0111    0.0000 N   0  0
   -5.1874    7.5111    0.0000 C   0  0
   -6.4899    5.2625    0.0000 C   0  0
   -7.7891    6.0139    0.0000 C   0  0
   -9.0899    5.2654    0.0000 N   0  0
  -10.3883    6.0164    0.0000 C   0  0
   -9.0915    3.7654    0.0000 C   0  0
  1  2  2  0
  2  3  1  0
  3  4  2  0
  3  5  1  0
  5  6  1  0
  6  7  2  0
  7  8  1  0
  8  9  1  0
  9 10  1  0
 10 11  2  0
 11 12  1  0
 12 13  2  0
 13 14  1  0
 14 15  1  0
 15 16  1  0
 16 17  2  0
 17 18  1  0
 18 19  2  0
 19 20  1  0
 20 21  2  0
 21 16  1  0
 21 22  1  0
 22 23  1  0
 23 24  2  0
 24 25  1  0
 25 26  2  0
 26 22  1  0
 14 27  2  0
 27 10  1  0
  8 28  2  0
 28 29  1  0
 29 30  1  0
 28 31  1  0
 31 32  2  0
 32  6  1  0
 32 33  1  0
 33 34  1  0
 33 35  1  0
 35 36  1  0
 36 37  1  0
 37 38  1  0
 37 39  1  0
M  END
> <Name>
CHEMBL4162767

> <pChEMBL_Value>
7.48

$$$$
CHEMBL3219134
  SciTegic08122012322D

 50 55  0  0  0  0            999 V2000
    9.1232   -5.7304    0.0000 C   0  0
    7.6464   -5.4679    0.0000 C   0  0
    7.1341   -4.0572    0.0000 C   0  0
    8.0995   -2.9091    0.0000 O   0  0
    5.6565   -3.7945    0.0000 N   0  0
    5.1442   -2.3838    0.0000 C   0  0
    6.1069   -1.2335    0.0000 C   0  0
    5.5920    0.1754    0.0000 C   0  0
    4.1145    0.4339    0.0000 C   0  0
    3.1484   -0.7186    0.0000 C   0  0
    1.6852   -0.3846    0.0000 N   0  0
    0.7500   -1.5574    0.0000 C   0  0
    1.4008   -2.9088    0.0000 O   0  0
   -0.7500   -1.5574    0.0000 C   0  0
   -1.4048   -2.9100    0.0000 C   0  0
   -2.9016   -3.0201    0.0000 C   0  0
   -3.5571   -4.3693    0.0000 C   0  0
   -5.0533   -4.4762    0.0000 C   0  0
   -5.8940   -3.2339    0.0000 C   0  0
   -7.3913   -3.3379    0.0000 O   0  0
   -8.2302   -2.0944    0.0000 C   0  0
   -5.2386   -1.8847    0.0000 C   0  0
   -3.7424   -1.7778    0.0000 C   0  0
   -1.6852   -0.3847    0.0000 N   0  0
   -3.1476   -0.7184    0.0000 C   0  0
   -1.3515    1.0777    0.0000 C   0  0
   -2.5242    2.0130    0.0000 O   0  0
    0.0000    1.7286    0.0000 C   0  0
   -0.1116    3.2255    0.0000 C   0  0
    1.1278    4.0705    0.0000 N   0  0
    2.4793    3.4197    0.0000 C   0  0
    3.7210    4.2626    0.0000 N   0  0
    5.0723    3.6095    0.0000 C   0  0
    5.1793    2.1132    0.0000 C   0  0
    6.5285    1.4577    0.0000 C   0  0
    7.7708    2.2984    0.0000 C   0  0
    9.1206    1.6426    0.0000 N   0  0
    9.2301    0.1465    0.0000 C   0  0
   10.5803   -0.5068    0.0000 C   0  0
   11.8212    0.3359    0.0000 N   0  0
   13.1715   -0.3175    0.0000 C   0  0
   11.7119    1.8319    0.0000 C   0  0
   10.3617    2.4852    0.0000 C   0  0
    7.6638    3.7946    0.0000 C   0  0
    6.3146    4.4501    0.0000 C   0  0
    6.2108    5.9473    0.0000 O   0  0
    7.4543    6.7862    0.0000 C   0  0
    2.5913    1.9239    0.0000 N   0  0
    1.3514    1.0777    0.0000 C   0  0
    3.6667   -2.1252    0.0000 C   0  0
  1  2  2  0
  2  3  1  0
  3  4  2  0
  3  5  1  0
  5  6  1  0
  6  7  2  0
  7  8  1  0
  8  9  2  0
  9 10  1  0
 10 11  1  0
 11 12  1  0
 12 13  2  0
 12 14  1  0
 14 15  1  0
 15 16  1  0
 16 17  2  0
 17 18  1  0
 18 19  2  0
 19 20  1  0
 20 21  1  0
 19 22  1  0
 22 23  2  0
 23 16  1  0
 14 24  1  0
 24 25  1  0
 24 26  1  0
 26 27  2  0
 26 28  1  0
 28 29  2  0
 29 30  1  0
 30 31  2  0
 31 32  1  0
 32 33  1  0
 33 34  2  0
 34 35  1  0
 35 36  2  0
 36 37  1  0
 37 38  1  0
 38 39  1  0
 39 40  1  0
 40 41  1  0
 40 42  1  0
 42 43  1  0
 43 37  1  0
 36 44  1  0
 44 45  2  0
 45 33  1  0
 45 46  1  0
 46 47  1  0
 31 48  1  0
 48 49  2  0
 49 28  1  0
 49 11  1  0
 10 50  2  0
 50  6  1  0
M  END
> <Name>
CHEMBL3219134

> <pChEMBL_Value>
7.47

$$$$
CHEMBL3633146
  SciTegic08122012322D

 37 41  0  0  0  0            999 V2000
    6.4757   -8.2656    0.0000 C   0  0
    5.1799   -7.5101    0.0000 C   0  0
    5.1854   -6.0093    0.0000 C   0  0
    6.4874   -5.2644    0.0000 O   0  0
    3.8888   -5.2533    0.0000 N   0  0
    3.8943   -3.7525    0.0000 C   0  0
    5.1945   -3.0045    0.0000 C   0  0
    5.1969   -1.5045    0.0000 C   0  0
    3.8991   -0.7525    0.0000 C   0  0
    2.5987   -1.5004    0.0000 C   0  0
    1.2990   -0.7500    0.0000 N   0  0
    0.0000   -1.5000    0.0000 C   0  0
    0.0000   -3.0000    0.0000 O   0  0
   -1.2990   -0.7500    0.0000 C   0  0
   -1.2990    0.7500    0.0000 C   0  0
   -2.5981    1.5000    0.0000 C   0  0
    0.0000    1.5000    0.0000 C   0  0
    0.0000    3.0000    0.0000 C   0  0
    1.2990    3.7500    0.0000 N   0  0
    2.5981    3.0000    0.0000 C   0  0
    3.8994    3.7477    0.0000 N   0  0
    5.1981    2.9955    0.0000 C   0  0
    6.4997    3.7409    0.0000 C   0  0
    7.7962    2.9864    0.0000 C   0  0
    7.7910    1.4864    0.0000 C   0  0
    9.0881    0.7316    0.0000 N   0  0
   10.3910    1.4750    0.0000 C   0  0
   11.6862    0.7184    0.0000 C   0  0
   11.6787   -0.7816    0.0000 N   0  0
   12.9739   -1.5381    0.0000 C   0  0
   10.3759   -1.5250    0.0000 C   0  0
    9.0806   -0.7685    0.0000 C   0  0
    6.4894    0.7409    0.0000 C   0  0
    5.1929    1.4954    0.0000 C   0  0
    2.5981    1.5000    0.0000 N   0  0
    1.2990    0.7500    0.0000 C   0  0
    2.5965   -3.0004    0.0000 C   0  0
  1  2  2  0
  2  3  1  0
  3  4  2  0
  3  5  1  0
  5  6  1  0
  6  7  2  0
  7  8  1  0
  8  9  2  0
  9 10  1  0
 10 11  1  0
 11 12  1  0
 12 13  2  0
 12 14  1  0
 14 15  2  0
 15 16  1  0
 15 17  1  0
 17 18  2  0
 18 19  1  0
 19 20  2  0
 20 21  1  0
 21 22  1  0
 22 23  2  0
 23 24  1  0
 24 25  2  0
 25 26  1  0
 26 27  1  0
 27 28  1  0
 28 29  1  0
 29 30  1  0
 29 31  1  0
 31 32  1  0
 32 26  1  0
 25 33  1  0
 33 34  2  0
 34 22  1  0
 20 35  1  0
 35 36  2  0
 36 17  1  0
 36 11  1  0
 10 37  2  0
 37  6  1  0
M  END
> <Name>
CHEMBL3633146

> <pChEMBL_Value>
7.47

$$$$
CHEMBL3219135
  SciTegic08122012322D

 49 54  0  0  0  0            999 V2000
    9.1232   -5.7304    0.0000 C   0  0
    7.6464   -5.4679    0.0000 C   0  0
    7.1341   -4.0572    0.0000 C   0  0
    8.0995   -2.9091    0.0000 O   0  0
    5.6565   -3.7945    0.0000 N   0  0
    5.1442   -2.3838    0.0000 C   0  0
    6.1069   -1.2335    0.0000 C   0  0
    5.5920    0.1754    0.0000 C   0  0
    4.1145    0.4339    0.0000 C   0  0
    3.1484   -0.7186    0.0000 C   0  0
    1.6852   -0.3846    0.0000 N   0  0
    0.7500   -1.5574    0.0000 C   0  0
    1.4008   -2.9088    0.0000 O   0  0
   -0.7500   -1.5574    0.0000 C   0  0
   -1.4048   -2.9100    0.0000 C   0  0
   -2.9016   -3.0201    0.0000 C   0  0
   -3.5571   -4.3693    0.0000 C   0  0
   -5.0533   -4.4762    0.0000 C   0  0
   -5.8940   -3.2339    0.0000 C   0  0
   -7.3902   -3.3409    0.0000 Cl  0  0
   -5.2386   -1.8847    0.0000 C   0  0
   -3.7424   -1.7778    0.0000 C   0  0
   -1.6852   -0.3847    0.0000 N   0  0
   -3.1476   -0.7184    0.0000 C   0  0
   -1.3515    1.0777    0.0000 C   0  0
   -2.5242    2.0130    0.0000 O   0  0
    0.0000    1.7286    0.0000 C   0  0
   -0.1116    3.2255    0.0000 C   0  0
    1.1278    4.0705    0.0000 N   0  0
    2.4793    3.4197    0.0000 C   0  0
    3.7210    4.2626    0.0000 N   0  0
    5.0723    3.6095    0.0000 C   0  0
    5.1793    2.1132    0.0000 C   0  0
    6.5285    1.4577    0.0000 C   0  0
    7.7708    2.2984    0.0000 C   0  0
    9.1206    1.6426    0.0000 N   0  0
    9.2301    0.1465    0.0000 C   0  0
   10.5803   -0.5068    0.0000 C   0  0
   11.8212    0.3359    0.0000 N   0  0
   13.1715   -0.3175    0.0000 C   0  0
   11.7119    1.8319    0.0000 C   0  0
   10.3617    2.4852    0.0000 C   0  0
    7.6638    3.7946    0.0000 C   0  0
    6.3146    4.4501    0.0000 C   0  0
    6.2108    5.9473    0.0000 O   0  0
    7.4543    6.7862    0.0000 C   0  0
    2.5913    1.9239    0.0000 N   0  0
    1.3514    1.0777    0.0000 C   0  0
    3.6667   -2.1252    0.0000 C   0  0
  1  2  2  0
  2  3  1  0
  3  4  2  0
  3  5  1  0
  5  6  1  0
  6  7  2  0
  7  8  1  0
  8  9  2  0
  9 10  1  0
 10 11  1  0
 11 12  1  0
 12 13  2  0
 12 14  1  0
 14 15  1  0
 15 16  1  0
 16 17  2  0
 17 18  1  0
 18 19  2  0
 19 20  1  0
 19 21  1  0
 21 22  2  0
 22 16  1  0
 14 23  1  0
 23 24  1  0
 23 25  1  0
 25 26  2  0
 25 27  1  0
 27 28  2  0
 28 29  1  0
 29 30  2  0
 30 31  1  0
 31 32  1  0
 32 33  2  0
 33 34  1  0
 34 35  2  0
 35 36  1  0
 36 37  1  0
 37 38  1  0
 38 39  1  0
 39 40  1  0
 39 41  1  0
 41 42  1  0
 42 36  1  0
 35 43  1  0
 43 44  2  0
 44 32  1  0
 44 45  1  0
 45 46  1  0
 30 47  1  0
 47 48  2  0
 48 27  1  0
 48 11  1  0
 10 49  2  0
 49  6  1  0
M  END
> <Name>
CHEMBL3219135

> <pChEMBL_Value>
7.43

$$$$
CHEMBL4126797
  SciTegic08122012322D

 42 46  0  0  0  0            999 V2000
    6.4757   -8.2656    0.0000 C   0  0
    5.1799   -7.5101    0.0000 C   0  0
    5.1854   -6.0093    0.0000 C   0  0
    6.4874   -5.2644    0.0000 O   0  0
    3.8888   -5.2533    0.0000 N   0  0
    3.8943   -3.7525    0.0000 C   0  0
    5.1945   -3.0045    0.0000 C   0  0
    5.1969   -1.5045    0.0000 C   0  0
    3.8991   -0.7525    0.0000 C   0  0
    2.5987   -1.5004    0.0000 C   0  0
    1.2990   -0.7500    0.0000 N   0  0
    0.0000   -1.5000    0.0000 C   0  0
    0.0000   -3.0000    0.0000 O   0  0
   -1.2990   -0.7500    0.0000 N   0  0
   -2.5981   -1.5000    0.0000 C   0  0
   -1.2990    0.7500    0.0000 C   0  0
   -2.5981    1.5000    0.0000 O   0  0
    0.0000    1.5000    0.0000 C   0  0
    0.0000    3.0000    0.0000 C   0  0
    1.2990    3.7500    0.0000 N   0  0
    2.5981    3.0000    0.0000 C   0  0
    3.8994    3.7477    0.0000 N   0  0
    5.1981    2.9955    0.0000 C   0  0
    5.1929    1.4954    0.0000 C   0  0
    6.4894    0.7409    0.0000 C   0  0
    7.7910    1.4865    0.0000 C   0  0
    9.0881    0.7316    0.0000 N   0  0
    9.0854   -0.7685    0.0000 C   0  0
   10.3830   -1.5209    0.0000 C   0  0
   11.6835   -0.7733    0.0000 N   0  0
   12.9834   -1.5235    0.0000 C   0  0
   12.9832   -3.0235    0.0000 C   0  0
   14.2827   -0.7741    0.0000 O   0  0
   11.6863    0.7267    0.0000 C   0  0
   10.3886    1.4791    0.0000 C   0  0
    7.7962    2.9864    0.0000 C   0  0
    6.4997    3.7409    0.0000 C   0  0
    6.5081    5.2417    0.0000 O   0  0
    7.8108    5.9853    0.0000 C   0  0
    2.5981    1.5000    0.0000 N   0  0
    1.2990    0.7500    0.0000 C   0  0
    2.5965   -3.0004    0.0000 C   0  0
  1  2  2  0
  2  3  1  0
  3  4  2  0
  3  5  1  0
  5  6  1  0
  6  7  2  0
  7  8  1  0
  8  9  2  0
  9 10  1  0
 10 11  1  0
 11 12  1  0
 12 13  2  0
 12 14  1  0
 14 15  1  0
 14 16  1  0
 16 17  2  0
 16 18  1  0
 18 19  2  0
 19 20  1  0
 20 21  2  0
 21 22  1  0
 22 23  1  0
 23 24  2  0
 24 25  1  0
 25 26  2  0
 26 27  1  0
 27 28  1  0
 28 29  1  0
 29 30  1  0
 30 31  1  0
 31 32  1  0
 31 33  2  0
 30 34  1  0
 34 35  1  0
 35 27  1  0
 26 36  1  0
 36 37  2  0
 37 23  1  0
 37 38  1  0
 38 39  1  0
 21 40  1  0
 40 41  2  0
 41 18  1  0
 41 11  1  0
 10 42  2  0
 42  6  1  0
M  END
> <Name>
CHEMBL4126797

> <pChEMBL_Value>
7.34

$$$$
CHEMBL4226965
  SciTegic08122012322D

 35 38  0  0  0  0            999 V2000
    6.4983   -0.7627    0.0000 C   0  0
    5.1972   -1.5092    0.0000 C   0  0
    3.8990   -0.7562    0.0000 C   0  0
    3.9026    0.7438    0.0000 O   0  0
    2.5973   -1.5031    0.0000 N   0  0
    1.2990   -0.7500    0.0000 C   0  0
    1.2990    0.7500    0.0000 C   0  0
    0.0000    1.5000    0.0000 C   0  0
   -1.2990    0.7500    0.0000 C   0  0
   -1.2990   -0.7500    0.0000 C   0  0
   -2.5972   -1.5031    0.0000 N   0  0
   -2.5951   -3.0039    0.0000 C   0  0
   -1.2948   -3.7517    0.0000 O   0  0
   -3.8933   -3.7570    0.0000 N   0  0
   -3.8912   -5.2578    0.0000 C   0  0
   -5.1876   -6.0124    0.0000 C   0  0
   -5.1824   -7.5124    0.0000 C   0  0
   -3.8808   -8.2579    0.0000 N   0  0
   -2.5843   -7.5034    0.0000 C   0  0
   -1.2804   -8.2467    0.0000 N   0  0
    0.0156   -7.4899    0.0000 C   0  0
    1.3199   -8.2308    0.0000 C   0  0
    2.6137   -7.4719    0.0000 C   0  0
    2.6033   -5.9719    0.0000 C   0  0
    3.8978   -5.2125    0.0000 N   0  0
    5.2033   -5.9514    0.0000 C   0  0
    6.4959   -5.1904    0.0000 C   0  0
    6.4831   -3.6904    0.0000 N   0  0
    7.7757   -2.9294    0.0000 C   0  0
    5.1777   -2.9515    0.0000 C   0  0
    3.8851   -3.7125    0.0000 C   0  0
    1.2991   -5.2309    0.0000 C   0  0
    0.0053   -5.9899    0.0000 C   0  0
   -2.5895   -6.0034    0.0000 N   0  0
    0.0000   -1.5000    0.0000 C   0  0
  1  2  2  0
  2  3  1  0
  3  4  2  0
  3  5  1  0
  5  6  1  0
  6  7  2  0
  7  8  1  0
  8  9  2  0
  9 10  1  0
 10 11  1  0
 11 12  1  0
 12 13  2  0
 12 14  1  0
 14 15  1  0
 15 16  2  0
 16 17  1  0
 17 18  2  0
 18 19  1  0
 19 20  1  0
 20 21  1  0
 21 22  2  0
 22 23  1  0
 23 24  2  0
 24 25  1  0
 25 26  1  0
 26 27  1  0
 27 28  1  0
 28 29  1  0
 28 30  1  0
 30 31  1  0
 31 25  1  0
 24 32  1  0
 32 33  2  0
 33 21  1  0
 19 34  2  0
 34 15  1  0
 10 35  2  0
 35  6  1  0
M  END
> <Name>
CHEMBL4226965

> <pChEMBL_Value>
7.32

$$$$
CHEMBL507714
  SciTegic08122012322D

 57 64  0  0  0  0            999 V2000
   -8.9766   -2.9827    0.0000 C   0  0
   -7.5391   -3.4113    0.0000 O   0  0
   -6.4479   -2.3809    0.0000 C   0  0
   -6.7976   -0.9222    0.0000 C   0  0
   -5.7092    0.1100    0.0000 C   0  0
   -6.0590    1.5694    0.0000 N   0  0
   -7.4964    1.9983    0.0000 C   0  0
   -7.8438    3.4575    0.0000 C   0  0
   -6.7537    4.4879    0.0000 C   0  0
   -7.1012    5.9479    0.0000 N   0  0
   -8.5380    6.3791    0.0000 C   0  0
   -8.8830    7.8389    0.0000 C   0  0
   -7.7913    8.8676    0.0000 N   0  0
   -8.1365   10.3281    0.0000 S   0  0
   -7.0445   11.3565    0.0000 C   0  0
   -9.5730   10.7601    0.0000 O   0  0
   -8.4809   11.7881    0.0000 O   0  0
   -6.3546    8.4365    0.0000 C   0  0
   -6.0096    6.9767    0.0000 C   0  0
   -5.3163    4.0591    0.0000 C   0  0
   -4.9690    2.5999    0.0000 C   0  0
   -4.2711   -0.3166    0.0000 C   0  0
   -3.9214   -1.7752    0.0000 C   0  0
   -5.0098   -2.8075    0.0000 C   0  0
   -4.6570   -4.2663    0.0000 N   0  0
   -3.2175   -4.6910    0.0000 C   0  0
   -2.8628   -6.1485    0.0000 N   0  0
   -1.4233   -6.5700    0.0000 C   0  0
   -0.3384   -5.5341    0.0000 C   0  0
   -0.6928   -4.0817    0.0000 C   0  0
    0.3114   -2.9665    0.0000 C   0  0
    1.8032   -3.1233    0.0000 C   0  0
    2.5536   -4.4230    0.0000 C   0  0
    1.9048   -5.7699    0.0000 C   0  0
    2.7505   -7.0088    0.0000 C   0  0
    4.2462   -6.8959    0.0000 C   0  0
    4.8963   -5.5441    0.0000 C   0  0
    6.3927   -5.4281    0.0000 C   0  0
    7.2405   -6.6656    0.0000 O   0  0
    7.0412   -4.0747    0.0000 N   0  0
    8.5376   -3.9587    0.0000 C   0  0
    9.1878   -2.6069    0.0000 C   0  0
    8.3421   -1.3679    0.0000 F   0  0
   10.6835   -2.4940    0.0000 C   0  0
   11.5292   -3.7329    0.0000 C   0  0
   10.8791   -5.0847    0.0000 C   0  0
    9.3833   -5.1976    0.0000 C   0  0
    8.7333   -6.5494    0.0000 F   0  0
    4.0507   -4.3052    0.0000 C   0  0
    2.4133   -1.7530    0.0000 N   0  0
    1.2990   -0.7500    0.0000 C   0  0
    1.2990    0.7500    0.0000 C   0  0
    0.0000    1.5000    0.0000 C   0  0
   -1.2990    0.7500    0.0000 C   0  0
   -1.2990   -0.7500    0.0000 C   0  0
    0.0000   -1.5000    0.0000 N   0  0
   -2.1327   -3.6551    0.0000 N   0  0
  1  2  1  0
  2  3  1  0
  3  4  2  0
  4  5  1  0
  5  6  1  0
  6  7  1  0
  7  8  1  0
  8  9  1  0
  9 10  1  0
 10 11  1  0
 11 12  1  0
 12 13  1  0
 13 14  1  0
 14 15  1  0
 14 16  2  0
 14 17  2  0
 13 18  1  0
 18 19  1  0
 19 10  1  0
  9 20  1  0
 20 21  1  0
 21  6  1  0
  5 22  2  0
 22 23  1  0
 23 24  2  0
 24  3  1  0
 24 25  1  0
 25 26  1  0
 26 27  2  0
 27 28  1  0
 28 29  2  0
 29 30  1  0
 30 31  1  0
 31 32  2  0
 32 33  1  0
 33 34  2  0
 34 35  1  0
 35 36  2  0
 36 37  1  0
 37 38  1  0
 38 39  2  0
 38 40  1  0
 40 41  1  0
 41 42  2  0
 42 43  1  0
 42 44  1  0
 44 45  2  0
 45 46  1  0
 46 47  2  0
 47 41  1  0
 47 48  1  0
 37 49  2  0
 49 33  1  0
 32 50  1  0
 50 51  2  0
 51 52  1  0
 52 53  2  0
 53 54  1  0
 54 55  2  0
 55 56  1  0
 56 31  1  0
 56 51  1  0
 30 57  2  0
 57 26  1  0
M  END
> <Name>
CHEMBL507714

> <pChEMBL_Value>
7.24

$$$$
CHEMBL3752448
  SciTegic08122012322D

 41 46  0  0  0  0            999 V2000
    6.4757   -8.2656    0.0000 C   0  0
    5.1799   -7.5101    0.0000 C   0  0
    5.1854   -6.0093    0.0000 C   0  0
    6.4874   -5.2644    0.0000 O   0  0
    3.8888   -5.2533    0.0000 N   0  0
    3.8943   -3.7525    0.0000 C   0  0
    5.1945   -3.0045    0.0000 C   0  0
    5.1969   -1.5045    0.0000 C   0  0
    3.8991   -0.7525    0.0000 C   0  0
    2.5987   -1.5004    0.0000 C   0  0
    1.2990   -0.7500    0.0000 N   0  0
    0.0000   -1.5000    0.0000 C   0  0
    0.0000   -3.0000    0.0000 O   0  0
   -1.2990   -0.7500    0.0000 C   0  0
   -1.2990    0.7500    0.0000 C   0  0
   -2.5987    1.5004    0.0000 C   0  0
   -4.0197    1.4569    0.0000 C   0  0
   -3.2676    2.7548    0.0000 C   0  0
    0.0000    1.5000    0.0000 C   0  0
    0.0000    3.0000    0.0000 C   0  0
    1.2990    3.7500    0.0000 N   0  0
    2.5981    3.0000    0.0000 C   0  0
    3.8994    3.7477    0.0000 N   0  0
    5.1981    2.9955    0.0000 C   0  0
    5.1929    1.4954    0.0000 C   0  0
    6.4894    0.7409    0.0000 C   0  0
    7.7910    1.4865    0.0000 C   0  0
    9.0881    0.7316    0.0000 N   0  0
    9.0854   -0.7685    0.0000 C   0  0
   10.3830   -1.5209    0.0000 C   0  0
   11.6835   -0.7733    0.0000 N   0  0
   12.9811   -1.5257    0.0000 C   0  0
   11.6863    0.7267    0.0000 C   0  0
   10.3886    1.4791    0.0000 C   0  0
    7.7962    2.9864    0.0000 C   0  0
    6.4997    3.7409    0.0000 C   0  0
    6.5081    5.2417    0.0000 O   0  0
    7.8108    5.9853    0.0000 C   0  0
    2.5981    1.5000    0.0000 N   0  0
    1.2990    0.7500    0.0000 C   0  0
    2.5965   -3.0004    0.0000 C   0  0
  1  2  2  0
  2  3  1  0
  3  4  2  0
  3  5  1  0
  5  6  1  0
  6  7  2  0
  7  8  1  0
  8  9  2  0
  9 10  1  0
 10 11  1  0
 11 12  1  0
 12 13  2  0
 12 14  1  0
 14 15  2  0
 15 16  1  0
 16 17  1  0
 17 18  1  0
 18 16  1  0
 15 19  1  0
 19 20  2  0
 20 21  1  0
 21 22  2  0
 22 23  1  0
 23 24  1  0
 24 25  2  0
 25 26  1  0
 26 27  2  0
 27 28  1  0
 28 29  1  0
 29 30  1  0
 30 31  1  0
 31 32  1  0
 31 33  1  0
 33 34  1  0
 34 28  1  0
 27 35  1  0
 35 36  2  0
 36 24  1  0
 36 37  1  0
 37 38  1  0
 22 39  1  0
 39 40  2  0
 40 19  1  0
 40 11  1  0
 10 41  2  0
 41  6  1  0
M  END
> <Name>
CHEMBL3752448

> <pChEMBL_Value>
7.24

$$$$
CHEMBL4099008
  SciTegic08122012322D

 38 42  0  0  0  0            999 V2000
    5.8140    5.0084    0.0000 C   0  0
    5.2115    3.6348    0.0000 C   0  0
    6.0996    2.4249    0.0000 C   0  0
    7.5906    2.5895    0.0000 O   0  0
    5.4979    1.0528    0.0000 N   0  0
    6.2524   -0.2436    0.0000 C   0  0
    5.2526   -1.3618    0.0000 C   0  0
    3.8990   -0.7455    0.0000 C   0  0
    2.6003   -1.4977    0.0000 C   0  0
    1.2990   -0.7500    0.0000 N   0  0
    1.2990    0.7500    0.0000 C   0  0
    2.5981    1.5000    0.0000 O   0  0
    0.0000    1.5000    0.0000 C   0  0
   -1.2990    0.7500    0.0000 C   0  0
   -2.5981    1.5000    0.0000 C   0  0
   -1.2990   -0.7500    0.0000 C   0  0
   -2.5981   -1.5000    0.0000 C   0  0
   -2.5981   -3.0000    0.0000 N   0  0
   -1.2990   -3.7500    0.0000 C   0  0
   -1.2959   -5.2508    0.0000 N   0  0
    0.0049   -5.9994    0.0000 C   0  0
    1.3014   -5.2449    0.0000 C   0  0
    2.6030   -5.9904    0.0000 C   0  0
    2.6082   -7.4904    0.0000 C   0  0
    3.9105   -8.2363    0.0000 N   0  0
    5.2082   -7.4839    0.0000 C   0  0
    6.5087   -8.2315    0.0000 C   0  0
    6.5115   -9.7315    0.0000 N   0  0
    7.8119  -10.4791    0.0000 C   0  0
    5.2139  -10.4839    0.0000 C   0  0
    3.9134   -9.7363    0.0000 C   0  0
    1.3118   -8.2449    0.0000 C   0  0
    0.0102   -7.4994    0.0000 C   0  0
   -1.2854   -8.2570    0.0000 O   0  0
   -1.2780   -9.7570    0.0000 C   0  0
    0.0000   -3.0000    0.0000 N   0  0
    0.0000   -1.5000    0.0000 C   0  0
    4.0317    0.7359    0.0000 C   0  0
  1  2  2  0
  2  3  1  0
  3  4  2  0
  3  5  1  0
  5  6  1  0
  6  7  1  0
  7  8  1  0
  8  9  1  0
  9 10  1  0
 10 11  1  0
 11 12  2  0
 11 13  1  0
 13 14  2  0
 14 15  1  0
 14 16  1  0
 16 17  2  0
 17 18  1  0
 18 19  2  0
 19 20  1  0
 20 21  1  0
 21 22  2  0
 22 23  1  0
 23 24  2  0
 24 25  1  0
 25 26  1  0
 26 27  1  0
 27 28  1  0
 28 29  1  0
 28 30  1  0
 30 31  1  0
 31 25  1  0
 24 32  1  0
 32 33  2  0
 33 21  1  0
 33 34  1  0
 34 35  1  0
 19 36  1  0
 36 37  2  0
 37 16  1  0
 37 10  1  0
  8 38  1  0
 38  5  1  0
M  END
> <Name>
CHEMBL4099008

> <pChEMBL_Value>
7.20

$$$$
CHEMBL3699608
  SciTegic08122012322D

 43 46  0  0  0  0            999 V2000
    3.8912   -5.2570    0.0000 C   0  0
    3.8933   -3.7570    0.0000 C   0  0
    2.5951   -3.0039    0.0000 C   0  0
    1.2948   -3.7516    0.0000 O   0  0
    2.5973   -1.5031    0.0000 N   0  0
    1.2990   -0.7500    0.0000 C   0  0
    1.2990    0.7500    0.0000 C   0  0
    0.0000    1.5000    0.0000 C   0  0
   -1.2990    0.7500    0.0000 C   0  0
   -1.2990   -0.7500    0.0000 C   0  0
   -2.5972   -1.5031    0.0000 N   0  0
   -2.5951   -3.0039    0.0000 C   0  0
   -1.2935   -3.7495    0.0000 N   0  0
   -1.2883   -5.2495    0.0000 C   0  0
    0.0125   -5.9981    0.0000 N   0  0
    0.0156   -7.4989    0.0000 C   0  0
   -1.2835   -8.2490    0.0000 C   0  0
   -1.2835   -9.7490    0.0000 C   0  0
    0.0156  -10.4990    0.0000 C   0  0
    0.0156  -11.9998    0.0000 N   0  0
   -1.2823  -12.7520    0.0000 C   0  0
   -1.2799  -14.2520    0.0000 C   0  0
    0.0203  -14.9999    0.0000 N   0  0
    0.0258  -16.5007    0.0000 C   0  0
   -1.2707  -17.2550    0.0000 O   0  0
    1.3278  -17.2472    0.0000 C   0  0
    1.3333  -18.7472    0.0000 C   0  0
    2.6295  -17.9927    0.0000 C   0  0
    2.6244  -16.4929    0.0000 C   0  0
    1.3182  -14.2478    0.0000 C   0  0
    1.3158  -12.7478    0.0000 C   0  0
    1.3146   -9.7490    0.0000 C   0  0
    1.3146   -8.2490    0.0000 C   0  0
    2.6159   -7.5013    0.0000 O   0  0
    3.9139   -8.2532    0.0000 C   0  0
   -2.5847   -6.0040    0.0000 N   0  0
   -3.8863   -5.2585    0.0000 C   0  0
   -3.8915   -3.7585    0.0000 C   0  0
   -5.1939   -3.0126    0.0000 C   0  0
   -6.4908   -3.7663    0.0000 F   0  0
   -5.1987   -1.5126    0.0000 F   0  0
   -6.4952   -2.2666    0.0000 F   0  0
    0.0000   -1.5000    0.0000 C   0  0
  1  2  2  0
  2  3  1  0
  3  4  2  0
  3  5  1  0
  5  6  1  0
  6  7  2  0
  7  8  1  0
  8  9  2  0
  9 10  1  0
 10 11  1  0
 11 12  1  0
 12 13  2  0
 13 14  1  0
 14 15  1  0
 15 16  1  0
 16 17  2  0
 17 18  1  0
 18 19  2  0
 19 20  1  0
 20 21  1  0
 21 22  1  0
 22 23  1  0
 23 24  1  0
 24 25  2  0
 24 26  1  0
 26 27  1  0
 26 28  1  0
 26 29  1  0
 23 30  1  0
 30 31  1  0
 31 20  1  0
 19 32  1  0
 32 33  2  0
 33 16  1  0
 33 34  1  0
 34 35  1  0
 14 36  2  0
 36 37  1  0
 37 38  2  0
 38 12  1  0
 38 39  1  0
 39 40  1  0
 39 41  1  0
 39 42  1  0
 10 43  2  0
 43  6  1  0
M  END
> <Name>
CHEMBL3699608

> <pChEMBL_Value>
7.19

$$$$
CHEMBL4099445
  SciTegic08122012322D

 39 44  0  0  0  0            999 V2000
    0.4248    2.2256    0.0000 C   0  0
    1.0683    3.5805    0.0000 C   0  0
    2.5642    3.7017    0.0000 C   0  0
    3.4163    2.4672    0.0000 O   0  0
    3.2081    5.0574    0.0000 N   0  0
    4.7041    5.1786    0.0000 C   0  0
    5.5540    3.9426    0.0000 C   0  0
    7.0494    4.0606    0.0000 C   0  0
    7.8972    2.8222    0.0000 N   0  0
    9.3937    2.9363    0.0000 C   0  0
   10.2429    1.6998    0.0000 N   0  0
   11.7383    1.8169    0.0000 C   0  0
   12.3846    3.1706    0.0000 C   0  0
   11.5375    4.4025    0.0000 C   0  0
   12.0803    5.8016    0.0000 C   0  0
   13.5306    6.1846    0.0000 C   0  0
   13.6142    7.6815    0.0000 N   0  0
   12.2158    8.2241    0.0000 C   0  0
   11.9864    9.7064    0.0000 C   0  0
   10.4754   10.0436    0.0000 C   0  0
    9.4109    8.9868    0.0000 C   0  0
    9.7939    7.5365    0.0000 C   0  0
   11.2679    7.0625    0.0000 C   0  0
   13.1555   10.6462    0.0000 C   0  0
   14.5540   10.1036    0.0000 C   0  0
   14.7833    8.6213    0.0000 C   0  0
   10.0400    4.2899    0.0000 N   0  0
    7.6948    5.4147    0.0000 C   0  0
    9.1907    5.5359    0.0000 O   0  0
    9.8342    6.8909    0.0000 C   0  0
    6.8449    6.6507    0.0000 C   0  0
    5.3495    6.5326    0.0000 C   0  0
    4.4992    7.7692    0.0000 N   0  0
    5.1424    9.1244    0.0000 C   0  0
    4.2906   10.3590    0.0000 C   0  0
    2.7954   10.2386    0.0000 N   0  0
    1.9435   11.4732    0.0000 C   0  0
    2.1521    8.8835    0.0000 C   0  0
    3.0040    7.6489    0.0000 C   0  0
  1  2  2  0
  2  3  1  0
  3  4  2  0
  3  5  1  0
  5  6  1  0
  6  7  2  0
  7  8  1  0
  8  9  1  0
  9 10  1  0
 10 11  2  0
 11 12  1  0
 12 13  2  0
 13 14  1  0
 14 15  1  0
 15 16  2  0
 16 17  1  0
 17 18  1  0
 18 19  2  0
 19 20  1  0
 20 21  2  0
 21 22  1  0
 22 23  2  0
 23 15  1  0
 23 18  1  0
 19 24  1  0
 24 25  1  0
 25 26  1  0
 26 17  1  0
 14 27  2  0
 27 10  1  0
  8 28  2  0
 28 29  1  0
 29 30  1  0
 28 31  1  0
 31 32  2  0
 32  6  1  0
 32 33  1  0
 33 34  1  0
 34 35  1  0
 35 36  1  0
 36 37  1  0
 36 38  1  0
 38 39  1  0
 39 33  1  0
M  END
> <Name>
CHEMBL4099445

> <pChEMBL_Value>
7.19

$$$$
CHEMBL3639984
  SciTegic08122012322D

 44 47  0  0  0  0            999 V2000
    3.8912   -5.2570    0.0000 C   0  0
    3.8933   -3.7570    0.0000 C   0  0
    2.5951   -3.0039    0.0000 C   0  0
    1.2948   -3.7516    0.0000 O   0  0
    2.5973   -1.5031    0.0000 N   0  0
    1.2990   -0.7500    0.0000 C   0  0
    1.2990    0.7500    0.0000 C   0  0
    0.0000    1.5000    0.0000 C   0  0
   -1.2990    0.7500    0.0000 C   0  0
   -1.2990   -0.7500    0.0000 C   0  0
   -2.5972   -1.5031    0.0000 N   0  0
   -2.5951   -3.0039    0.0000 C   0  0
   -1.2935   -3.7495    0.0000 N   0  0
   -1.2883   -5.2495    0.0000 C   0  0
    0.0125   -5.9981    0.0000 N   0  0
    0.0156   -7.4989    0.0000 C   0  0
   -1.2835   -8.2490    0.0000 C   0  0
   -1.2835   -9.7490    0.0000 C   0  0
    0.0156  -10.4990    0.0000 C   0  0
    0.0156  -11.9998    0.0000 N   0  0
   -1.2823  -12.7520    0.0000 C   0  0
   -1.2799  -14.2520    0.0000 C   0  0
    0.0203  -14.9999    0.0000 N   0  0
    0.0258  -16.5007    0.0000 C   0  0
   -1.2707  -17.2550    0.0000 O   0  0
    1.3278  -17.2472    0.0000 C   0  0
    1.3333  -18.7472    0.0000 O   0  0
    1.3182  -14.2478    0.0000 C   0  0
    1.3158  -12.7478    0.0000 C   0  0
    1.3146   -9.7490    0.0000 C   0  0
    1.3146   -8.2490    0.0000 C   0  0
    2.6159   -7.5013    0.0000 O   0  0
    3.9146   -8.2536    0.0000 C   0  0
    5.2152   -7.5063    0.0000 F   0  0
    3.9119   -9.7536    0.0000 F   0  0
    5.2122   -9.0061    0.0000 F   0  0
   -2.5847   -6.0040    0.0000 N   0  0
   -3.8863   -5.2585    0.0000 C   0  0
   -3.8915   -3.7585    0.0000 C   0  0
   -5.1939   -3.0126    0.0000 C   0  0
   -6.4908   -3.7663    0.0000 F   0  0
   -5.1987   -1.5126    0.0000 F   0  0
   -6.4952   -2.2666    0.0000 F   0  0
    0.0000   -1.5000    0.0000 C   0  0
  1  2  2  0
  2  3  1  0
  3  4  2  0
  3  5  1  0
  5  6  1  0
  6  7  2  0
  7  8  1  0
  8  9  2  0
  9 10  1  0
 10 11  1  0
 11 12  1  0
 12 13  2  0
 13 14  1  0
 14 15  1  0
 15 16  1  0
 16 17  2  0
 17 18  1  0
 18 19  2  0
 19 20  1  0
 20 21  1  0
 21 22  1  0
 22 23  1  0
 23 24  1  0
 24 25  2  0
 24 26  1  0
 26 27  1  0
 23 28  1  0
 28 29  1  0
 29 20  1  0
 19 30  1  0
 30 31  2  0
 31 16  1  0
 31 32  1  0
 32 33  1  0
 33 34  1  0
 33 35  1  0
 33 36  1  0
 14 37  2  0
 37 38  1  0
 38 39  2  0
 39 12  1  0
 39 40  1  0
 40 41  1  0
 40 42  1  0
 40 43  1  0
 10 44  2  0
 44  6  1  0
M  END
> <Name>
CHEMBL3639984

> <pChEMBL_Value>
7.19

$$$$
CHEMBL4126654
  SciTegic08122012322D

 39 43  0  0  0  0            999 V2000
    6.4757   -8.2656    0.0000 C   0  0
    5.1799   -7.5101    0.0000 C   0  0
    5.1854   -6.0093    0.0000 C   0  0
    6.4874   -5.2644    0.0000 O   0  0
    3.8888   -5.2533    0.0000 N   0  0
    3.8943   -3.7525    0.0000 C   0  0
    5.1945   -3.0045    0.0000 C   0  0
    5.1969   -1.5045    0.0000 C   0  0
    3.8991   -0.7525    0.0000 C   0  0
    2.5987   -1.5004    0.0000 C   0  0
    1.2990   -0.7500    0.0000 N   0  0
    0.0000   -1.5000    0.0000 C   0  0
    0.0000   -3.0000    0.0000 O   0  0
   -1.2990   -0.7500    0.0000 N   0  0
   -2.5981   -1.5000    0.0000 C   0  0
   -1.2990    0.7500    0.0000 C   0  0
   -2.5981    1.5000    0.0000 O   0  0
    0.0000    1.5000    0.0000 C   0  0
    0.0000    3.0000    0.0000 C   0  0
    1.2990    3.7500    0.0000 N   0  0
    2.5981    3.0000    0.0000 C   0  0
    3.8994    3.7477    0.0000 N   0  0
    5.1981    2.9955    0.0000 C   0  0
    5.1929    1.4954    0.0000 C   0  0
    6.4894    0.7409    0.0000 C   0  0
    7.7910    1.4865    0.0000 C   0  0
    9.0881    0.7316    0.0000 N   0  0
    9.0854   -0.7685    0.0000 C   0  0
   10.3830   -1.5209    0.0000 C   0  0
   11.6835   -0.7733    0.0000 O   0  0
   11.6863    0.7267    0.0000 C   0  0
   10.3886    1.4791    0.0000 C   0  0
    7.7962    2.9864    0.0000 C   0  0
    6.4997    3.7409    0.0000 C   0  0
    6.5081    5.2417    0.0000 O   0  0
    7.8108    5.9853    0.0000 C   0  0
    2.5981    1.5000    0.0000 N   0  0
    1.2990    0.7500    0.0000 C   0  0
    2.5965   -3.0004    0.0000 C   0  0
  1  2  2  0
  2  3  1  0
  3  4  2  0
  3  5  1  0
  5  6  1  0
  6  7  2  0
  7  8  1  0
  8  9  2  0
  9 10  1  0
 10 11  1  0
 11 12  1  0
 12 13  2  0
 12 14  1  0
 14 15  1  0
 14 16  1  0
 16 17  2  0
 16 18  1  0
 18 19  2  0
 19 20  1  0
 20 21  2  0
 21 22  1  0
 22 23  1  0
 23 24  2  0
 24 25  1  0
 25 26  2  0
 26 27  1  0
 27 28  1  0
 28 29  1  0
 29 30  1  0
 30 31  1  0
 31 32  1  0
 32 27  1  0
 26 33  1  0
 33 34  2  0
 34 23  1  0
 34 35  1  0
 35 36  1  0
 21 37  1  0
 37 38  2  0
 38 18  1  0
 38 11  1  0
 10 39  2  0
 39  6  1  0
M  END
> <Name>
CHEMBL4126654

> <pChEMBL_Value>
7.16

$$$$
CHEMBL3754803
  SciTegic08122012322D

 38 42  0  0  0  0            999 V2000
    6.4757   -8.2656    0.0000 C   0  0
    5.1799   -7.5101    0.0000 C   0  0
    5.1854   -6.0093    0.0000 C   0  0
    6.4874   -5.2644    0.0000 O   0  0
    3.8888   -5.2533    0.0000 N   0  0
    3.8943   -3.7525    0.0000 C   0  0
    5.1945   -3.0045    0.0000 C   0  0
    5.1969   -1.5045    0.0000 C   0  0
    3.8991   -0.7525    0.0000 C   0  0
    2.5987   -1.5004    0.0000 C   0  0
    1.2990   -0.7500    0.0000 N   0  0
    0.0000   -1.5000    0.0000 C   0  0
    0.0000   -3.0000    0.0000 O   0  0
   -1.2990   -0.7500    0.0000 C   0  0
   -1.2990    0.7500    0.0000 C   0  0
   -2.5981    1.5000    0.0000 C   0  0
    0.0000    1.5000    0.0000 C   0  0
    0.0000    3.0000    0.0000 C   0  0
    1.2990    3.7500    0.0000 N   0  0
    2.5981    3.0000    0.0000 C   0  0
    3.8994    3.7477    0.0000 N   0  0
    5.1981    2.9955    0.0000 C   0  0
    5.1929    1.4954    0.0000 C   0  0
    6.4894    0.7409    0.0000 C   0  0
    7.7910    1.4865    0.0000 C   0  0
    9.0881    0.7316    0.0000 N   0  0
    9.0854   -0.7685    0.0000 C   0  0
   10.3830   -1.5209    0.0000 C   0  0
   11.6835   -0.7733    0.0000 N   0  0
   12.9811   -1.5257    0.0000 C   0  0
   11.6863    0.7267    0.0000 C   0  0
   10.3886    1.4791    0.0000 C   0  0
    7.7962    2.9864    0.0000 C   0  0
    6.4997    3.7409    0.0000 C   0  0
    6.5050    5.2409    0.0000 C   0  0
    2.5981    1.5000    0.0000 N   0  0
    1.2990    0.7500    0.0000 C   0  0
    2.5965   -3.0004    0.0000 C   0  0
  1  2  2  0
  2  3  1  0
  3  4  2  0
  3  5  1  0
  5  6  1  0
  6  7  2  0
  7  8  1  0
  8  9  2  0
  9 10  1  0
 10 11  1  0
 11 12  1  0
 12 13  2  0
 12 14  1  0
 14 15  2  0
 15 16  1  0
 15 17  1  0
 17 18  2  0
 18 19  1  0
 19 20  2  0
 20 21  1  0
 21 22  1  0
 22 23  2  0
 23 24  1  0
 24 25  2  0
 25 26  1  0
 26 27  1  0
 27 28  1  0
 28 29  1  0
 29 30  1  0
 29 31  1  0
 31 32  1  0
 32 26  1  0
 25 33  1  0
 33 34  2  0
 34 22  1  0
 34 35  1  0
 20 36  1  0
 36 37  2  0
 37 17  1  0
 37 11  1  0
 10 38  2  0
 38  6  1  0
M  END
> <Name>
CHEMBL3754803

> <pChEMBL_Value>
7.14

$$$$
CHEMBL3219131
  SciTegic08122012322D

 47 52  0  0  0  0            999 V2000
    9.1232   -5.7304    0.0000 C   0  0
    7.6464   -5.4679    0.0000 C   0  0
    7.1341   -4.0572    0.0000 C   0  0
    8.0995   -2.9091    0.0000 O   0  0
    5.6565   -3.7945    0.0000 N   0  0
    5.1442   -2.3838    0.0000 C   0  0
    6.1069   -1.2335    0.0000 C   0  0
    5.5920    0.1754    0.0000 C   0  0
    4.1145    0.4339    0.0000 C   0  0
    3.1484   -0.7186    0.0000 C   0  0
    1.6852   -0.3846    0.0000 N   0  0
    0.7500   -1.5574    0.0000 C   0  0
    1.4008   -2.9088    0.0000 O   0  0
   -0.7500   -1.5574    0.0000 C   0  0
   -1.4012   -2.9095    0.0000 C   0  0
   -0.4925   -4.1079    0.0000 C   0  0
   -1.0734   -5.4909    0.0000 C   0  0
   -2.5615   -5.6793    0.0000 C   0  0
   -3.4687   -4.4848    0.0000 C   0  0
   -2.8879   -3.1018    0.0000 C   0  0
   -1.6852   -0.3847    0.0000 N   0  0
   -3.1476   -0.7184    0.0000 C   0  0
   -1.3515    1.0777    0.0000 C   0  0
   -2.5242    2.0130    0.0000 O   0  0
    0.0000    1.7286    0.0000 C   0  0
   -0.1116    3.2255    0.0000 C   0  0
    1.1278    4.0705    0.0000 N   0  0
    2.4793    3.4197    0.0000 C   0  0
    3.7210    4.2626    0.0000 N   0  0
    5.0723    3.6095    0.0000 C   0  0
    5.1793    2.1132    0.0000 C   0  0
    6.5285    1.4577    0.0000 C   0  0
    7.7708    2.2984    0.0000 C   0  0
    9.1206    1.6426    0.0000 N   0  0
    9.2301    0.1465    0.0000 C   0  0
   10.5803   -0.5068    0.0000 C   0  0
   11.8212    0.3359    0.0000 N   0  0
   13.1715   -0.3175    0.0000 C   0  0
   11.7119    1.8319    0.0000 C   0  0
   10.3617    2.4852    0.0000 C   0  0
    7.6638    3.7946    0.0000 C   0  0
    6.3146    4.4501    0.0000 C   0  0
    6.2108    5.9473    0.0000 O   0  0
    7.4543    6.7862    0.0000 C   0  0
    2.5913    1.9239    0.0000 N   0  0
    1.3514    1.0777    0.0000 C   0  0
    3.6667   -2.1252    0.0000 C   0  0
  1  2  2  0
  2  3  1  0
  3  4  2  0
  3  5  1  0
  5  6  1  0
  6  7  2  0
  7  8  1  0
  8  9  2  0
  9 10  1  0
 10 11  1  0
 11 12  1  0
 12 13  2  0
 12 14  1  0
 14 15  1  0
 15 16  2  0
 16 17  1  0
 17 18  2  0
 18 19  1  0
 19 20  2  0
 20 15  1  0
 14 21  1  0
 21 22  1  0
 21 23  1  0
 23 24  2  0
 23 25  1  0
 25 26  2  0
 26 27  1  0
 27 28  2  0
 28 29  1  0
 29 30  1  0
 30 31  2  0
 31 32  1  0
 32 33  2  0
 33 34  1  0
 34 35  1  0
 35 36  1  0
 36 37  1  0
 37 38  1  0
 37 39  1  0
 39 40  1  0
 40 34  1  0
 33 41  1  0
 41 42  2  0
 42 30  1  0
 42 43  1  0
 43 44  1  0
 28 45  1  0
 45 46  2  0
 46 25  1  0
 46 11  1  0
 10 47  2  0
 47  6  1  0
M  END
> <Name>
CHEMBL3219131

> <pChEMBL_Value>
7.11

$$$$
CHEMBL4093766
  SciTegic08122012322D

 37 41  0  0  1  0            999 V2000
    4.5246   -7.2506    0.0000 C   0  0
    3.9195   -5.8781    0.0000 C   0  0
    4.8054   -4.6666    0.0000 C   0  0
    6.2966   -4.8284    0.0000 O   0  0
    4.2010   -3.2956    0.0000 N   0  0
    4.9531   -1.9978    0.0000 C   0  0
    3.9511   -0.8815    0.0000 C   0  0
    2.5987   -1.5004    0.0000 C   0  0  2  0  0  0
    1.2990   -0.7500    0.0000 N   0  0
    1.2990    0.7500    0.0000 C   0  0
    2.5981    1.5000    0.0000 O   0  0
    0.0000    1.5000    0.0000 C   0  0
   -1.2990    0.7500    0.0000 C   0  0
   -2.5981    1.5000    0.0000 C   0  0
   -1.2990   -0.7500    0.0000 C   0  0
   -2.5981   -1.5000    0.0000 C   0  0
   -2.5981   -3.0000    0.0000 N   0  0
   -1.2990   -3.7500    0.0000 C   0  0
   -1.2959   -5.2508    0.0000 N   0  0
    0.0049   -5.9994    0.0000 C   0  0
    1.3014   -5.2449    0.0000 C   0  0
    2.6030   -5.9904    0.0000 C   0  0
    2.6082   -7.4904    0.0000 C   0  0
    3.9105   -8.2363    0.0000 N   0  0
    5.2082   -7.4839    0.0000 C   0  0
    6.5087   -8.2315    0.0000 C   0  0
    6.5115   -9.7315    0.0000 N   0  0
    7.8119  -10.4791    0.0000 C   0  0
    5.2139  -10.4839    0.0000 C   0  0
    3.9134   -9.7363    0.0000 C   0  0
    1.3118   -8.2449    0.0000 C   0  0
    0.0102   -7.4994    0.0000 C   0  0
   -1.2854   -8.2570    0.0000 O   0  0
   -1.2780   -9.7570    0.0000 C   0  0
    0.0000   -3.0000    0.0000 N   0  0
    0.0000   -1.5000    0.0000 C   0  0
    2.7343   -2.9815    0.0000 C   0  0
  1  2  2  0
  2  3  1  0
  3  4  2  0
  3  5  1  0
  5  6  1  0
  6  7  1  0
  7  8  1  0
  8  9  1  1
  9 10  1  0
 10 11  2  0
 10 12  1  0
 12 13  2  0
 13 14  1  0
 13 15  1  0
 15 16  2  0
 16 17  1  0
 17 18  2  0
 18 19  1  0
 19 20  1  0
 20 21  2  0
 21 22  1  0
 22 23  2  0
 23 24  1  0
 24 25  1  0
 25 26  1  0
 26 27  1  0
 27 28  1  0
 27 29  1  0
 29 30  1  0
 30 24  1  0
 23 31  1  0
 31 32  2  0
 32 20  1  0
 32 33  1  0
 33 34  1  0
 18 35  1  0
 35 36  2  0
 36 15  1  0
 36  9  1  0
  8 37  1  0
 37  5  1  0
M  END
> <Name>
CHEMBL4093766

> <pChEMBL_Value>
7.04

$$$$
CHEMBL4125772
  SciTegic08122012322D

 39 43  0  0  0  0            999 V2000
    6.4757   -8.2656    0.0000 C   0  0
    5.1799   -7.5101    0.0000 C   0  0
    5.1854   -6.0093    0.0000 C   0  0
    6.4874   -5.2644    0.0000 O   0  0
    3.8888   -5.2533    0.0000 N   0  0
    3.8943   -3.7525    0.0000 C   0  0
    5.1945   -3.0045    0.0000 C   0  0
    5.1969   -1.5045    0.0000 C   0  0
    3.8991   -0.7525    0.0000 C   0  0
    2.5987   -1.5004    0.0000 C   0  0
    1.2990   -0.7500    0.0000 N   0  0
    0.0000   -1.5000    0.0000 C   0  0
    0.0000   -3.0000    0.0000 O   0  0
   -1.2990   -0.7500    0.0000 N   0  0
   -2.5981   -1.5000    0.0000 C   0  0
   -1.2990    0.7500    0.0000 C   0  0
   -2.5981    1.5000    0.0000 O   0  0
    0.0000    1.5000    0.0000 C   0  0
    0.0000    3.0000    0.0000 C   0  0
    1.2990    3.7500    0.0000 N   0  0
    2.5981    3.0000    0.0000 C   0  0
    3.8994    3.7477    0.0000 N   0  0
    5.1981    2.9955    0.0000 C   0  0
    5.1929    1.4954    0.0000 C   0  0
    6.4894    0.7409    0.0000 C   0  0
    7.7910    1.4865    0.0000 C   0  0
    9.0881    0.7316    0.0000 N   0  0
    9.0854   -0.7685    0.0000 C   0  0
   10.3830   -1.5209    0.0000 C   0  0
   11.6835   -0.7733    0.0000 S   0  0
   11.6863    0.7267    0.0000 C   0  0
   10.3886    1.4791    0.0000 C   0  0
    7.7962    2.9864    0.0000 C   0  0
    6.4997    3.7409    0.0000 C   0  0
    6.5081    5.2417    0.0000 O   0  0
    7.8108    5.9853    0.0000 C   0  0
    2.5981    1.5000    0.0000 N   0  0
    1.2990    0.7500    0.0000 C   0  0
    2.5965   -3.0004    0.0000 C   0  0
  1  2  2  0
  2  3  1  0
  3  4  2  0
  3  5  1  0
  5  6  1  0
  6  7  2  0
  7  8  1  0
  8  9  2  0
  9 10  1  0
 10 11  1  0
 11 12  1  0
 12 13  2  0
 12 14  1  0
 14 15  1  0
 14 16  1  0
 16 17  2  0
 16 18  1  0
 18 19  2  0
 19 20  1  0
 20 21  2  0
 21 22  1  0
 22 23  1  0
 23 24  2  0
 24 25  1  0
 25 26  2  0
 26 27  1  0
 27 28  1  0
 28 29  1  0
 29 30  1  0
 30 31  1  0
 31 32  1  0
 32 27  1  0
 26 33  1  0
 33 34  2  0
 34 23  1  0
 34 35  1  0
 35 36  1  0
 21 37  1  0
 37 38  2  0
 38 18  1  0
 38 11  1  0
 10 39  2  0
 39  6  1  0
M  END
> <Name>
CHEMBL4125772

> <pChEMBL_Value>
7.04

$$$$
CHEMBL3753305
  SciTegic08122012322D

 44 49  0  0  0  0            999 V2000
    6.4757   -8.2656    0.0000 C   0  0
    5.1799   -7.5101    0.0000 C   0  0
    5.1854   -6.0093    0.0000 C   0  0
    6.4874   -5.2644    0.0000 O   0  0
    3.8888   -5.2533    0.0000 N   0  0
    3.8943   -3.7525    0.0000 C   0  0
    5.1945   -3.0045    0.0000 C   0  0
    5.1969   -1.5045    0.0000 C   0  0
    3.8991   -0.7525    0.0000 C   0  0
    2.5987   -1.5004    0.0000 C   0  0
    1.2990   -0.7500    0.0000 N   0  0
    0.0000   -1.5000    0.0000 C   0  0
    0.0000   -3.0000    0.0000 O   0  0
   -1.2990   -0.7500    0.0000 C   0  0
   -1.2990    0.7500    0.0000 C   0  0
   -2.5987    1.5004    0.0000 C   0  0
   -3.8991    0.7525    0.0000 C   0  0
   -5.1969    1.5045    0.0000 C   0  0
   -5.1945    3.0045    0.0000 C   0  0
   -3.8943    3.7525    0.0000 C   0  0
   -2.5965    3.0004    0.0000 C   0  0
    0.0000    1.5000    0.0000 C   0  0
    0.0000    3.0000    0.0000 C   0  0
    1.2990    3.7500    0.0000 N   0  0
    2.5981    3.0000    0.0000 C   0  0
    3.8994    3.7477    0.0000 N   0  0
    5.1981    2.9955    0.0000 C   0  0
    5.1929    1.4954    0.0000 C   0  0
    6.4894    0.7409    0.0000 C   0  0
    7.7910    1.4865    0.0000 C   0  0
    9.0881    0.7316    0.0000 N   0  0
    9.0854   -0.7685    0.0000 C   0  0
   10.3830   -1.5209    0.0000 C   0  0
   11.6835   -0.7733    0.0000 N   0  0
   12.9811   -1.5257    0.0000 C   0  0
   11.6863    0.7267    0.0000 C   0  0
   10.3886    1.4791    0.0000 C   0  0
    7.7962    2.9864    0.0000 C   0  0
    6.4997    3.7409    0.0000 C   0  0
    6.5081    5.2417    0.0000 O   0  0
    7.8108    5.9853    0.0000 C   0  0
    2.5981    1.5000    0.0000 N   0  0
    1.2990    0.7500    0.0000 C   0  0
    2.5965   -3.0004    0.0000 C   0  0
  1  2  2  0
  2  3  1  0
  3  4  2  0
  3  5  1  0
  5  6  1  0
  6  7  2  0
  7  8  1  0
  8  9  2  0
  9 10  1  0
 10 11  1  0
 11 12  1  0
 12 13  2  0
 12 14  1  0
 14 15  2  0
 15 16  1  0
 16 17  2  0
 17 18  1  0
 18 19  2  0
 19 20  1  0
 20 21  2  0
 21 16  1  0
 15 22  1  0
 22 23  2  0
 23 24  1  0
 24 25  2  0
 25 26  1  0
 26 27  1  0
 27 28  2  0
 28 29  1  0
 29 30  2  0
 30 31  1  0
 31 32  1  0
 32 33  1  0
 33 34  1  0
 34 35  1  0
 34 36  1  0
 36 37  1  0
 37 31  1  0
 30 38  1  0
 38 39  2  0
 39 27  1  0
 39 40  1  0
 40 41  1  0
 25 42  1  0
 42 43  2  0
 43 22  1  0
 43 11  1  0
 10 44  2  0
 44  6  1  0
M  END
> <Name>
CHEMBL3753305

> <pChEMBL_Value>
7.01

$$$$
CHEMBL3754040
  SciTegic08122012322D

 41 45  0  0  0  0            999 V2000
    6.4757   -8.2656    0.0000 C   0  0
    5.1799   -7.5101    0.0000 C   0  0
    5.1854   -6.0093    0.0000 C   0  0
    6.4874   -5.2644    0.0000 O   0  0
    3.8888   -5.2533    0.0000 N   0  0
    3.8943   -3.7525    0.0000 C   0  0
    5.1945   -3.0045    0.0000 C   0  0
    5.1969   -1.5045    0.0000 C   0  0
    3.8991   -0.7525    0.0000 C   0  0
    2.5987   -1.5004    0.0000 C   0  0
    1.2990   -0.7500    0.0000 N   0  0
    0.0000   -1.5000    0.0000 C   0  0
    0.0000   -3.0000    0.0000 O   0  0
   -1.2990   -0.7500    0.0000 C   0  0
   -1.2990    0.7500    0.0000 C   0  0
   -2.6003    1.4977    0.0000 C   0  0
   -3.8983    0.7459    0.0000 C   0  0
   -2.6030    2.9977    0.0000 C   0  0
    0.0000    1.5000    0.0000 C   0  0
    0.0000    3.0000    0.0000 C   0  0
    1.2990    3.7500    0.0000 N   0  0
    2.5981    3.0000    0.0000 C   0  0
    3.8994    3.7477    0.0000 N   0  0
    5.1981    2.9955    0.0000 C   0  0
    5.1929    1.4954    0.0000 C   0  0
    6.4894    0.7409    0.0000 C   0  0
    7.7910    1.4865    0.0000 C   0  0
    9.0881    0.7316    0.0000 N   0  0
    9.0854   -0.7685    0.0000 C   0  0
   10.3830   -1.5209    0.0000 C   0  0
   11.6835   -0.7733    0.0000 N   0  0
   12.9811   -1.5257    0.0000 C   0  0
   11.6863    0.7267    0.0000 C   0  0
   10.3886    1.4791    0.0000 C   0  0
    7.7962    2.9864    0.0000 C   0  0
    6.4997    3.7409    0.0000 C   0  0
    6.5081    5.2417    0.0000 O   0  0
    7.8108    5.9853    0.0000 C   0  0
    2.5981    1.5000    0.0000 N   0  0
    1.2990    0.7500    0.0000 C   0  0
    2.5965   -3.0004    0.0000 C   0  0
  1  2  2  0
  2  3  1  0
  3  4  2  0
  3  5  1  0
  5  6  1  0
  6  7  2  0
  7  8  1  0
  8  9  2  0
  9 10  1  0
 10 11  1  0
 11 12  1  0
 12 13  2  0
 12 14  1  0
 14 15  2  0
 15 16  1  0
 16 17  1  0
 16 18  1  0
 15 19  1  0
 19 20  2  0
 20 21  1  0
 21 22  2  0
 22 23  1  0
 23 24  1  0
 24 25  2  0
 25 26  1  0
 26 27  2  0
 27 28  1  0
 28 29  1  0
 29 30  1  0
 30 31  1  0
 31 32  1  0
 31 33  1  0
 33 34  1  0
 34 28  1  0
 27 35  1  0
 35 36  2  0
 36 24  1  0
 36 37  1  0
 37 38  1  0
 22 39  1  0
 39 40  2  0
 40 19  1  0
 40 11  1  0
 10 41  2  0
 41  6  1  0
M  END
> <Name>
CHEMBL3754040

> <pChEMBL_Value>
7.01

$$$$
CHEMBL3751976
  SciTegic08122012322D

 40 44  0  0  0  0            999 V2000
    6.4757   -8.2656    0.0000 C   0  0
    5.1799   -7.5101    0.0000 C   0  0
    5.1854   -6.0093    0.0000 C   0  0
    6.4874   -5.2644    0.0000 O   0  0
    3.8888   -5.2533    0.0000 N   0  0
    3.8943   -3.7525    0.0000 C   0  0
    5.1945   -3.0045    0.0000 C   0  0
    5.1969   -1.5045    0.0000 C   0  0
    3.8991   -0.7525    0.0000 C   0  0
    2.5987   -1.5004    0.0000 C   0  0
    1.2990   -0.7500    0.0000 N   0  0
    0.0000   -1.5000    0.0000 C   0  0
    0.0000   -3.0000    0.0000 O   0  0
   -1.2990   -0.7500    0.0000 C   0  0
   -1.2990    0.7500    0.0000 C   0  0
   -2.6003    1.4977    0.0000 C   0  0
   -3.8983    0.7459    0.0000 C   0  0
    0.0000    1.5000    0.0000 C   0  0
    0.0000    3.0000    0.0000 C   0  0
    1.2990    3.7500    0.0000 N   0  0
    2.5981    3.0000    0.0000 C   0  0
    3.8994    3.7477    0.0000 N   0  0
    5.1981    2.9955    0.0000 C   0  0
    5.1929    1.4954    0.0000 C   0  0
    6.4894    0.7409    0.0000 C   0  0
    7.7910    1.4865    0.0000 C   0  0
    9.0881    0.7316    0.0000 N   0  0
    9.0854   -0.7685    0.0000 C   0  0
   10.3830   -1.5209    0.0000 C   0  0
   11.6835   -0.7733    0.0000 N   0  0
   12.9811   -1.5257    0.0000 C   0  0
   11.6863    0.7267    0.0000 C   0  0
   10.3886    1.4791    0.0000 C   0  0
    7.7962    2.9864    0.0000 C   0  0
    6.4997    3.7409    0.0000 C   0  0
    6.5081    5.2417    0.0000 O   0  0
    7.8108    5.9853    0.0000 C   0  0
    2.5981    1.5000    0.0000 N   0  0
    1.2990    0.7500    0.0000 C   0  0
    2.5965   -3.0004    0.0000 C   0  0
  1  2  2  0
  2  3  1  0
  3  4  2  0
  3  5  1  0
  5  6  1  0
  6  7  2  0
  7  8  1  0
  8  9  2  0
  9 10  1  0
 10 11  1  0
 11 12  1  0
 12 13  2  0
 12 14  1  0
 14 15  2  0
 15 16  1  0
 16 17  1  0
 15 18  1  0
 18 19  2  0
 19 20  1  0
 20 21  2  0
 21 22  1  0
 22 23  1  0
 23 24  2  0
 24 25  1  0
 25 26  2  0
 26 27  1  0
 27 28  1  0
 28 29  1  0
 29 30  1  0
 30 31  1  0
 30 32  1  0
 32 33  1  0
 33 27  1  0
 26 34  1  0
 34 35  2  0
 35 23  1  0
 35 36  1  0
 36 37  1  0
 21 38  1  0
 38 39  2  0
 39 18  1  0
 39 11  1  0
 10 40  2  0
 40  6  1  0
M  END
> <Name>
CHEMBL3751976

> <pChEMBL_Value>
6.94

$$$$
CHEMBL4126986
  SciTegic08122012322D

 41 44  0  0  0  0            999 V2000
    6.4757   -8.2656    0.0000 C   0  0
    5.1799   -7.5101    0.0000 C   0  0
    5.1854   -6.0093    0.0000 C   0  0
    6.4874   -5.2644    0.0000 O   0  0
    3.8888   -5.2533    0.0000 N   0  0
    3.8943   -3.7525    0.0000 C   0  0
    5.1945   -3.0045    0.0000 C   0  0
    5.1969   -1.5045    0.0000 C   0  0
    3.8991   -0.7525    0.0000 C   0  0
    2.5987   -1.5004    0.0000 C   0  0
    1.2990   -0.7500    0.0000 N   0  0
    1.2990    0.7500    0.0000 C   0  0
    2.5981    1.5000    0.0000 O   0  0
    0.0000    1.5000    0.0000 N   0  0
   -0.0031    3.0008    0.0000 C   0  0
   -1.3032    3.7490    0.0000 C   0  0
    1.2946    3.7531    0.0000 C   0  0
   -1.2990    0.7500    0.0000 C   0  0
   -2.5981    1.5000    0.0000 O   0  0
   -1.2990   -0.7500    0.0000 C   0  0
   -2.5981   -1.5000    0.0000 C   0  0
   -2.5981   -3.0000    0.0000 N   0  0
   -1.2990   -3.7500    0.0000 C   0  0
   -1.2959   -5.2508    0.0000 N   0  0
    0.0049   -5.9994    0.0000 C   0  0
    1.3014   -5.2449    0.0000 C   0  0
    2.6030   -5.9904    0.0000 C   0  0
    2.6082   -7.4904    0.0000 C   0  0
    3.9091   -8.2390    0.0000 O   0  0
    3.9121   -9.7398    0.0000 C   0  0
    5.2129  -10.4884    0.0000 C   0  0
    5.2160  -11.9892    0.0000 N   0  0
    6.5160  -12.7374    0.0000 C   0  0
    3.9182  -12.7415    0.0000 C   0  0
    1.3118   -8.2449    0.0000 C   0  0
    0.0102   -7.4994    0.0000 C   0  0
   -1.2854   -8.2570    0.0000 O   0  0
   -1.2780   -9.7570    0.0000 C   0  0
    0.0000   -3.0000    0.0000 N   0  0
    0.0000   -1.5000    0.0000 C   0  0
    2.5965   -3.0004    0.0000 C   0  0
  1  2  2  0
  2  3  1  0
  3  4  2  0
  3  5  1  0
  5  6  1  0
  6  7  2  0
  7  8  1  0
  8  9  2  0
  9 10  1  0
 10 11  1  0
 11 12  1  0
 12 13  2  0
 12 14  1  0
 14 15  1  0
 15 16  1  0
 15 17  1  0
 14 18  1  0
 18 19  2  0
 18 20  1  0
 20 21  2  0
 21 22  1  0
 22 23  2  0
 23 24  1  0
 24 25  1  0
 25 26  2  0
 26 27  1  0
 27 28  2  0
 28 29  1  0
 29 30  1  0
 30 31  1  0
 31 32  1  0
 32 33  1  0
 32 34  1  0
 28 35  1  0
 35 36  2  0
 36 25  1  0
 36 37  1  0
 37 38  1  0
 23 39  1  0
 39 40  2  0
 40 20  1  0
 40 11  1  0
 10 41  2  0
 41  6  1  0
M  END
> <Name>
CHEMBL4126986

> <pChEMBL_Value>
6.94

$$$$
CHEMBL4166210
  SciTegic08122012322D

 39 43  0  0  0  0            999 V2000
    0.0311   10.4969    0.0000 C   0  0
   -1.2711    9.7524    0.0000 C   0  0
   -1.2785    8.2516    0.0000 C   0  0
    0.0171    7.4957    0.0000 O   0  0
   -2.5814    7.5068    0.0000 N   0  0
   -2.5887    6.0060    0.0000 C   0  0
   -1.2918    5.2523    0.0000 C   0  0
   -1.2961    3.7523    0.0000 C   0  0
    0.0031    3.0008    0.0000 N   0  0
    1.3039    3.7494    0.0000 C   0  0
    1.3092    5.2494    0.0000 N   0  0
    2.6108    5.9949    0.0000 C   0  0
    3.9072    5.2405    0.0000 C   0  0
    3.9020    3.7405    0.0000 C   0  0
    5.1976    2.9829    0.0000 N   0  0
    5.1903    1.4821    0.0000 C   0  0
    3.8861    0.7410    0.0000 C   0  0
    3.8758   -0.7590    0.0000 C   0  0
    5.1696   -1.5179    0.0000 C   0  0
    6.4738   -0.7769    0.0000 C   0  0
    6.4841    0.7230    0.0000 C   0  0
    7.7890    1.4644    0.0000 N   0  0
    7.9395    2.9440    0.0000 C   0  0
    9.4093    3.2434    0.0000 C   0  0
   10.1482    1.9380    0.0000 C   0  0
    9.1351    0.8319    0.0000 N   0  0
    2.6004    2.9949    0.0000 N   0  0
   -2.5973    3.0060    0.0000 C   0  0
   -2.6046    1.5052    0.0000 O   0  0
   -3.9068    0.7607    0.0000 C   0  0
   -3.8942    3.7597    0.0000 C   0  0
   -3.8899    5.2597    0.0000 C   0  0
   -5.1875    6.0137    0.0000 N   0  0
   -6.4899    5.2695    0.0000 C   0  0
   -7.7856    6.0253    0.0000 C   0  0
   -7.7790    7.5253    0.0000 N   0  0
   -9.0747    8.2810    0.0000 C   0  0
   -6.4766    8.2695    0.0000 C   0  0
   -5.1809    7.5138    0.0000 C   0  0
  1  2  2  0
  2  3  1  0
  3  4  2  0
  3  5  1  0
  5  6  1  0
  6  7  2  0
  7  8  1  0
  8  9  1  0
  9 10  1  0
 10 11  2  0
 11 12  1  0
 12 13  2  0
 13 14  1  0
 14 15  1  0
 15 16  1  0
 16 17  2  0
 17 18  1  0
 18 19  2  0
 19 20  1  0
 20 21  2  0
 21 16  1  0
 21 22  1  0
 22 23  1  0
 23 24  2  0
 24 25  1  0
 25 26  2  0
 26 22  1  0
 14 27  2  0
 27 10  1  0
  8 28  2  0
 28 29  1  0
 29 30  1  0
 28 31  1  0
 31 32  2  0
 32  6  1  0
 32 33  1  0
 33 34  1  0
 34 35  1  0
 35 36  1  0
 36 37  1  0
 36 38  1  0
 38 39  1  0
 39 33  1  0
M  END
> <Name>
CHEMBL4166210

> <pChEMBL_Value>
6.85

$$$$
CHEMBL4094086
  SciTegic08122012322D

 39 42  0  0  0  0            999 V2000
   -2.8827  -11.5495    0.0000 C   0  0
   -4.3226  -11.1290    0.0000 C   0  0
   -4.6795   -9.6712    0.0000 C   0  0
   -3.5958   -8.6342    0.0000 O   0  0
   -6.1202   -9.2506    0.0000 N   0  0
   -6.4771   -7.7928    0.0000 C   0  0
   -5.3916   -6.7576    0.0000 C   0  0
   -5.7452   -5.2998    0.0000 C   0  0
   -4.6570   -4.2663    0.0000 N   0  0
   -3.2175   -4.6910    0.0000 C   0  0
   -2.8628   -6.1485    0.0000 N   0  0
   -1.4233   -6.5700    0.0000 C   0  0
   -1.0654   -8.0275    0.0000 O   0  0
    0.3748   -8.4470    0.0000 C   0  0
   -0.3384   -5.5341    0.0000 C   0  0
   -0.6928   -4.0817    0.0000 C   0  0
    0.3114   -2.9665    0.0000 C   0  0
    1.8032   -3.1233    0.0000 C   0  0
    2.4133   -1.7530    0.0000 N   0  0
    3.8805   -1.4410    0.0000 C   0  0
    1.2990   -0.7500    0.0000 C   0  0
    1.2990    0.7500    0.0000 C   0  0
    0.0000    1.5000    0.0000 C   0  0
   -1.2990    0.7500    0.0000 C   0  0
   -1.2990   -0.7500    0.0000 C   0  0
    0.0000   -1.5000    0.0000 C   0  0
   -2.1327   -3.6551    0.0000 N   0  0
   -7.1846   -4.8774    0.0000 C   0  0
   -7.5416   -3.4196    0.0000 O   0  0
   -8.9814   -2.9992    0.0000 C   0  0
   -8.2701   -5.9126    0.0000 C   0  0
   -7.9164   -7.3703    0.0000 C   0  0
   -9.0046   -8.4038    0.0000 N   0  0
   -8.6534   -9.8621    0.0000 C   0  0
  -10.4441   -7.9790    0.0000 C   0  0
  -11.5323   -9.0126    0.0000 C   0  0
  -12.9718   -8.5878    0.0000 N   0  0
  -14.0594   -9.6207    0.0000 C   0  0
  -13.3230   -7.1295    0.0000 C   0  0
  1  2  2  0
  2  3  1  0
  3  4  2  0
  3  5  1  0
  5  6  1  0
  6  7  2  0
  7  8  1  0
  8  9  1  0
  9 10  1  0
 10 11  2  0
 11 12  1  0
 12 13  1  0
 13 14  1  0
 12 15  2  0
 15 16  1  0
 16 17  1  0
 17 18  2  0
 18 19  1  0
 19 20  1  0
 19 21  1  0
 21 22  2  0
 22 23  1  0
 23 24  2  0
 24 25  1  0
 25 26  2  0
 26 17  1  0
 26 21  1  0
 16 27  2  0
 27 10  1  0
  8 28  2  0
 28 29  1  0
 29 30  1  0
 28 31  1  0
 31 32  2  0
 32  6  1  0
 32 33  1  0
 33 34  1  0
 33 35  1  0
 35 36  1  0
 36 37  1  0
 37 38  1  0
 37 39  1  0
M  END
> <Name>
CHEMBL4094086

> <pChEMBL_Value>
6.81

$$$$
CHEMBL3754564
  SciTegic08122012322D

 40 44  0  0  0  0            999 V2000
    6.4757   -8.2656    0.0000 C   0  0
    5.1799   -7.5101    0.0000 C   0  0
    5.1854   -6.0093    0.0000 C   0  0
    6.4874   -5.2644    0.0000 O   0  0
    3.8888   -5.2533    0.0000 N   0  0
    3.8943   -3.7525    0.0000 C   0  0
    5.1945   -3.0045    0.0000 C   0  0
    5.1969   -1.5045    0.0000 C   0  0
    3.8991   -0.7525    0.0000 C   0  0
    2.5987   -1.5004    0.0000 C   0  0
    1.2990   -0.7500    0.0000 N   0  0
    0.0000   -1.5000    0.0000 C   0  0
    0.0000   -3.0000    0.0000 O   0  0
   -1.2990   -0.7500    0.0000 C   0  0
   -1.2990    0.7500    0.0000 C   0  0
   -2.5981    1.5000    0.0000 C   0  0
    0.0000    1.5000    0.0000 C   0  0
    0.0000    3.0000    0.0000 C   0  0
    1.2990    3.7500    0.0000 N   0  0
    2.5981    3.0000    0.0000 C   0  0
    3.8994    3.7477    0.0000 N   0  0
    5.1981    2.9955    0.0000 C   0  0
    5.1929    1.4954    0.0000 C   0  0
    6.4894    0.7409    0.0000 C   0  0
    7.7910    1.4865    0.0000 C   0  0
    9.0881    0.7316    0.0000 N   0  0
    9.0854   -0.7685    0.0000 C   0  0
   10.3830   -1.5209    0.0000 C   0  0
   11.6835   -0.7733    0.0000 N   0  0
   12.9811   -1.5257    0.0000 C   0  0
   11.6863    0.7267    0.0000 C   0  0
   10.3886    1.4791    0.0000 C   0  0
    7.7962    2.9864    0.0000 C   0  0
    6.4997    3.7409    0.0000 C   0  0
    6.5081    5.2417    0.0000 O   0  0
    7.8115    5.9858    0.0000 C   0  0
    7.8198    7.4857    0.0000 C   0  0
    2.5981    1.5000    0.0000 N   0  0
    1.2990    0.7500    0.0000 C   0  0
    2.5965   -3.0004    0.0000 C   0  0
  1  2  2  0
  2  3  1  0
  3  4  2  0
  3  5  1  0
  5  6  1  0
  6  7  2  0
  7  8  1  0
  8  9  2  0
  9 10  1  0
 10 11  1  0
 11 12  1  0
 12 13  2  0
 12 14  1  0
 14 15  2  0
 15 16  1  0
 15 17  1  0
 17 18  2  0
 18 19  1  0
 19 20  2  0
 20 21  1  0
 21 22  1  0
 22 23  2  0
 23 24  1  0
 24 25  2  0
 25 26  1  0
 26 27  1  0
 27 28  1  0
 28 29  1  0
 29 30  1  0
 29 31  1  0
 31 32  1  0
 32 26  1  0
 25 33  1  0
 33 34  2  0
 34 22  1  0
 34 35  1  0
 35 36  1  0
 36 37  1  0
 20 38  1  0
 38 39  2  0
 39 17  1  0
 39 11  1  0
 10 40  2  0
 40  6  1  0
M  END
> <Name>
CHEMBL3754564

> <pChEMBL_Value>
6.77

$$$$
CHEMBL4173032
  SciTegic08122012322D

 39 43  0  0  0  0            999 V2000
    0.0311   10.4969    0.0000 C   0  0
   -1.2711    9.7524    0.0000 C   0  0
   -1.2785    8.2516    0.0000 C   0  0
    0.0171    7.4957    0.0000 O   0  0
   -2.5814    7.5068    0.0000 N   0  0
   -2.5887    6.0060    0.0000 C   0  0
   -1.2918    5.2523    0.0000 C   0  0
   -1.2961    3.7523    0.0000 C   0  0
    0.0031    3.0008    0.0000 N   0  0
    1.3039    3.7494    0.0000 C   0  0
    1.3092    5.2494    0.0000 N   0  0
    2.6108    5.9949    0.0000 C   0  0
    3.9072    5.2405    0.0000 C   0  0
    3.9020    3.7405    0.0000 C   0  0
    5.1976    2.9829    0.0000 N   0  0
    5.1903    1.4821    0.0000 C   0  0
    3.8861    0.7410    0.0000 C   0  0
    3.8758   -0.7590    0.0000 C   0  0
    5.1696   -1.5179    0.0000 C   0  0
    6.4738   -0.7769    0.0000 C   0  0
    6.4841    0.7230    0.0000 C   0  0
    7.7890    1.4644    0.0000 N   0  0
    7.9395    2.9440    0.0000 N   0  0
    9.4093    3.2434    0.0000 C   0  0
   10.1482    1.9380    0.0000 C   0  0
    9.1351    0.8319    0.0000 N   0  0
    2.6004    2.9949    0.0000 N   0  0
   -2.5973    3.0060    0.0000 C   0  0
   -2.6046    1.5052    0.0000 O   0  0
   -3.9068    0.7607    0.0000 C   0  0
   -3.8942    3.7597    0.0000 C   0  0
   -3.8899    5.2597    0.0000 C   0  0
   -5.1875    6.0137    0.0000 N   0  0
   -6.4899    5.2695    0.0000 C   0  0
   -7.7856    6.0253    0.0000 C   0  0
   -7.7790    7.5253    0.0000 N   0  0
   -9.0747    8.2810    0.0000 C   0  0
   -6.4766    8.2695    0.0000 C   0  0
   -5.1809    7.5138    0.0000 C   0  0
  1  2  2  0
  2  3  1  0
  3  4  2  0
  3  5  1  0
  5  6  1  0
  6  7  2  0
  7  8  1  0
  8  9  1  0
  9 10  1  0
 10 11  2  0
 11 12  1  0
 12 13  2  0
 13 14  1  0
 14 15  1  0
 15 16  1  0
 16 17  2  0
 17 18  1  0
 18 19  2  0
 19 20  1  0
 20 21  2  0
 21 16  1  0
 21 22  1  0
 22 23  1  0
 23 24  2  0
 24 25  1  0
 25 26  2  0
 26 22  1  0
 14 27  2  0
 27 10  1  0
  8 28  2  0
 28 29  1  0
 29 30  1  0
 28 31  1  0
 31 32  2  0
 32  6  1  0
 32 33  1  0
 33 34  1  0
 34 35  1  0
 35 36  1  0
 36 37  1  0
 36 38  1  0
 38 39  1  0
 39 33  1  0
M  END
> <Name>
CHEMBL4173032

> <pChEMBL_Value>
6.76

$$$$
CHEMBL4087243
  SciTegic08122012322D

 37 41  0  0  0  0            999 V2000
    0.4248    2.2256    0.0000 C   0  0
    1.0683    3.5805    0.0000 C   0  0
    2.5642    3.7017    0.0000 C   0  0
    3.4163    2.4672    0.0000 O   0  0
    3.2081    5.0574    0.0000 N   0  0
    4.7041    5.1786    0.0000 C   0  0
    5.5540    3.9426    0.0000 C   0  0
    7.0494    4.0606    0.0000 C   0  0
    7.8972    2.8222    0.0000 N   0  0
    9.3937    2.9363    0.0000 C   0  0
   10.2429    1.6998    0.0000 N   0  0
   11.7383    1.8169    0.0000 C   0  0
   12.3846    3.1706    0.0000 C   0  0
   11.5375    4.4025    0.0000 C   0  0
   12.0803    5.8016    0.0000 C   0  0
   13.5306    6.1846    0.0000 C   0  0
   13.6142    7.6815    0.0000 N   0  0
   12.2158    8.2241    0.0000 C   0  0
   11.9864    9.7064    0.0000 C   0  0
   10.4754   10.0436    0.0000 C   0  0
    9.4109    8.9868    0.0000 C   0  0
    9.7939    7.5365    0.0000 C   0  0
   11.2679    7.0625    0.0000 C   0  0
   13.1555   10.6462    0.0000 C   0  0
   14.5540   10.1036    0.0000 C   0  0
   14.7833    8.6213    0.0000 C   0  0
   10.0400    4.2899    0.0000 N   0  0
    7.6948    5.4147    0.0000 C   0  0
    9.1907    5.5359    0.0000 O   0  0
    9.8342    6.8909    0.0000 C   0  0
    6.8449    6.6507    0.0000 C   0  0
    5.3495    6.5326    0.0000 C   0  0
    4.5017    7.7710    0.0000 N   0  0
    3.0061    7.6556    0.0000 C   0  0
    5.1494    9.1249    0.0000 C   0  0
    4.3016   10.3633    0.0000 C   0  0
    4.9490   11.7164    0.0000 O   0  0
  1  2  2  0
  2  3  1  0
  3  4  2  0
  3  5  1  0
  5  6  1  0
  6  7  2  0
  7  8  1  0
  8  9  1  0
  9 10  1  0
 10 11  2  0
 11 12  1  0
 12 13  2  0
 13 14  1  0
 14 15  1  0
 15 16  2  0
 16 17  1  0
 17 18  1  0
 18 19  2  0
 19 20  1  0
 20 21  2  0
 21 22  1  0
 22 23  2  0
 23 15  1  0
 23 18  1  0
 19 24  1  0
 24 25  1  0
 25 26  1  0
 26 17  1  0
 14 27  2  0
 27 10  1  0
  8 28  2  0
 28 29  1  0
 29 30  1  0
 28 31  1  0
 31 32  2  0
 32  6  1  0
 32 33  1  0
 33 34  1  0
 33 35  1  0
 35 36  1  0
 36 37  1  0
M  END
> <Name>
CHEMBL4087243

> <pChEMBL_Value>
6.72

$$$$
CHEMBL4173470
  SciTegic08122012322D

 41 45  0  0  0  0            999 V2000
    0.0311   10.4969    0.0000 C   0  0
   -1.2711    9.7524    0.0000 C   0  0
   -1.2785    8.2516    0.0000 C   0  0
    0.0171    7.4957    0.0000 O   0  0
   -2.5814    7.5068    0.0000 N   0  0
   -2.5887    6.0060    0.0000 C   0  0
   -1.2918    5.2523    0.0000 C   0  0
   -1.2961    3.7523    0.0000 C   0  0
    0.0031    3.0008    0.0000 N   0  0
    1.3039    3.7494    0.0000 C   0  0
    1.3092    5.2494    0.0000 N   0  0
    2.6108    5.9949    0.0000 C   0  0
    3.9072    5.2405    0.0000 C   0  0
    3.9020    3.7405    0.0000 C   0  0
    5.1976    2.9829    0.0000 N   0  0
    5.1903    1.4821    0.0000 C   0  0
    3.8861    0.7410    0.0000 C   0  0
    3.8758   -0.7590    0.0000 C   0  0
    5.1696   -1.5179    0.0000 C   0  0
    6.4738   -0.7769    0.0000 C   0  0
    6.4841    0.7230    0.0000 C   0  0
    7.7890    1.4644    0.0000 N   0  0
    7.9395    2.9440    0.0000 N   0  0
    9.4093    3.2434    0.0000 C   0  0
   10.1482    1.9380    0.0000 C   0  0
    9.1351    0.8319    0.0000 N   0  0
    2.6004    2.9949    0.0000 N   0  0
   -2.5973    3.0060    0.0000 C   0  0
   -2.6046    1.5052    0.0000 O   0  0
   -3.9068    0.7607    0.0000 C   0  0
   -3.8942    3.7597    0.0000 C   0  0
   -3.8899    5.2597    0.0000 C   0  0
   -5.1875    6.0137    0.0000 N   0  0
   -6.4899    5.2695    0.0000 C   0  0
   -7.7856    6.0253    0.0000 C   0  0
   -7.7790    7.5253    0.0000 C   0  0
   -9.0738    8.2841    0.0000 N   0  0
   -9.0651    9.7841    0.0000 C   0  0
  -10.3775    7.5421    0.0000 C   0  0
   -6.4766    8.2695    0.0000 C   0  0
   -5.1809    7.5138    0.0000 C   0  0
  1  2  2  0
  2  3  1  0
  3  4  2  0
  3  5  1  0
  5  6  1  0
  6  7  2  0
  7  8  1  0
  8  9  1  0
  9 10  1  0
 10 11  2  0
 11 12  1  0
 12 13  2  0
 13 14  1  0
 14 15  1  0
 15 16  1  0
 16 17  2  0
 17 18  1  0
 18 19  2  0
 19 20  1  0
 20 21  2  0
 21 16  1  0
 21 22  1  0
 22 23  1  0
 23 24  2  0
 24 25  1  0
 25 26  2  0
 26 22  1  0
 14 27  2  0
 27 10  1  0
  8 28  2  0
 28 29  1  0
 29 30  1  0
 28 31  1  0
 31 32  2  0
 32  6  1  0
 32 33  1  0
 33 34  1  0
 34 35  1  0
 35 36  1  0
 36 37  1  0
 37 38  1  0
 37 39  1  0
 36 40  1  0
 40 41  1  0
 41 33  1  0
M  END
> <Name>
CHEMBL4173470

> <pChEMBL_Value>
6.69

$$$$
CHEMBL4083224
  SciTegic08122012322D

 45 50  0  0  1  0            999 V2000
    4.5246   -7.2506    0.0000 C   0  0
    3.9195   -5.8781    0.0000 C   0  0
    4.8054   -4.6666    0.0000 C   0  0
    6.2966   -4.8284    0.0000 O   0  0
    4.2010   -3.2956    0.0000 N   0  0
    4.9531   -1.9978    0.0000 C   0  0
    3.9511   -0.8815    0.0000 C   0  0
    2.5987   -1.5004    0.0000 C   0  0  2  0  0  0
    1.2990   -0.7500    0.0000 N   0  0
    0.0000   -1.5000    0.0000 C   0  0
    0.0000   -3.0000    0.0000 O   0  0
   -1.2990   -0.7500    0.0000 N   0  0
   -2.5987   -1.5004    0.0000 C   0  0
   -3.8967   -0.7484    0.0000 C   0  0
   -5.1969   -1.4963    0.0000 C   0  0
   -6.4970   -0.7465    0.0000 O   0  0
   -7.7962   -1.4963    0.0000 C   0  0
   -5.1993   -2.9963    0.0000 C   0  0
   -3.9014   -3.7484    0.0000 C   0  0
   -2.6012   -3.0004    0.0000 C   0  0
   -1.3034   -3.7525    0.0000 F   0  0
   -1.2990    0.7500    0.0000 C   0  0
    0.0000    1.5000    0.0000 C   0  0
    0.0000    3.0000    0.0000 C   0  0
    1.2990    3.7500    0.0000 N   0  0
    2.5981    3.0000    0.0000 C   0  0
    3.8994    3.7477    0.0000 N   0  0
    5.1981    2.9955    0.0000 C   0  0
    6.4997    3.7409    0.0000 C   0  0
    7.7962    2.9864    0.0000 C   0  0
    7.7910    1.4864    0.0000 C   0  0
    9.0881    0.7316    0.0000 N   0  0
   10.3461    1.5619    0.0000 C   0  0
   11.7772    1.1126    0.0000 C   0  0
   12.3181   -0.2865    0.0000 C   0  0
   11.5616   -1.5817    0.0000 N   0  0
   12.4003   -2.8253    0.0000 C   0  0
   10.0772   -1.7978    0.0000 C   0  0
    8.9828   -0.7720    0.0000 C   0  0
    6.4894    0.7409    0.0000 C   0  0
    6.4842   -0.7590    0.0000 C   0  0
    5.1929    1.4954    0.0000 C   0  0
    2.5981    1.5000    0.0000 N   0  0
    1.2990    0.7500    0.0000 C   0  0
    2.7343   -2.9815    0.0000 C   0  0
  1  2  1  0
  2  3  1  0
  3  4  2  0
  3  5  1  0
  5  6  1  0
  6  7  1  0
  7  8  1  0
  8  9  1  1
  9 10  1  0
 10 11  2  0
 10 12  1  0
 12 13  1  0
 13 14  2  0
 14 15  1  0
 15 16  1  0
 16 17  1  0
 15 18  2  0
 18 19  1  0
 19 20  2  0
 20 13  1  0
 20 21  1  0
 12 22  1  0
 22 23  1  0
 23 24  2  0
 24 25  1  0
 25 26  2  0
 26 27  1  0
 27 28  1  0
 28 29  2  0
 29 30  1  0
 30 31  2  0
 31 32  1  0
 32 33  1  0
 33 34  1  0
 34 35  1  0
 35 36  1  0
 36 37  1  0
 36 38  1  0
 38 39  1  0
 39 32  1  0
 31 40  1  0
 40 41  1  0
 40 42  2  0
 42 28  1  0
 26 43  1  0
 43 44  2  0
 44 23  1  0
 44  9  1  0
  8 45  1  0
 45  5  1  0
M  END
> <Name>
CHEMBL4083224

> <pChEMBL_Value>
6.68

$$$$
CHEMBL3752139
  SciTegic08122012322D

 41 45  0  0  0  0            999 V2000
    6.4757   -8.2656    0.0000 C   0  0
    5.1799   -7.5101    0.0000 C   0  0
    5.1854   -6.0093    0.0000 C   0  0
    6.4874   -5.2644    0.0000 O   0  0
    3.8888   -5.2533    0.0000 N   0  0
    3.8943   -3.7525    0.0000 C   0  0
    5.1945   -3.0045    0.0000 C   0  0
    5.1969   -1.5045    0.0000 C   0  0
    3.8991   -0.7525    0.0000 C   0  0
    2.5987   -1.5004    0.0000 C   0  0
    1.2990   -0.7500    0.0000 N   0  0
    0.0000   -1.5000    0.0000 C   0  0
    0.0000   -3.0000    0.0000 O   0  0
   -1.2990   -0.7500    0.0000 C   0  0
   -1.2990    0.7500    0.0000 C   0  0
   -2.6003    1.4977    0.0000 N   0  0
   -3.8983    0.7459    0.0000 C   0  0
   -2.6030    2.9977    0.0000 C   0  0
    0.0000    1.5000    0.0000 C   0  0
    0.0000    3.0000    0.0000 C   0  0
    1.2990    3.7500    0.0000 N   0  0
    2.5981    3.0000    0.0000 C   0  0
    3.8994    3.7477    0.0000 N   0  0
    5.1981    2.9955    0.0000 C   0  0
    5.1929    1.4954    0.0000 C   0  0
    6.4894    0.7409    0.0000 C   0  0
    7.7910    1.4865    0.0000 C   0  0
    9.0881    0.7316    0.0000 N   0  0
    9.0854   -0.7685    0.0000 C   0  0
   10.3830   -1.5209    0.0000 C   0  0
   11.6835   -0.7733    0.0000 N   0  0
   12.9811   -1.5257    0.0000 C   0  0
   11.6863    0.7267    0.0000 C   0  0
   10.3886    1.4791    0.0000 C   0  0
    7.7962    2.9864    0.0000 C   0  0
    6.4997    3.7409    0.0000 C   0  0
    6.5081    5.2417    0.0000 O   0  0
    7.8108    5.9853    0.0000 C   0  0
    2.5981    1.5000    0.0000 N   0  0
    1.2990    0.7500    0.0000 C   0  0
    2.5965   -3.0004    0.0000 C   0  0
  1  2  2  0
  2  3  1  0
  3  4  2  0
  3  5  1  0
  5  6  1  0
  6  7  2  0
  7  8  1  0
  8  9  2  0
  9 10  1  0
 10 11  1  0
 11 12  1  0
 12 13  2  0
 12 14  1  0
 14 15  2  0
 15 16  1  0
 16 17  1  0
 16 18  1  0
 15 19  1  0
 19 20  2  0
 20 21  1  0
 21 22  2  0
 22 23  1  0
 23 24  1  0
 24 25  2  0
 25 26  1  0
 26 27  2  0
 27 28  1  0
 28 29  1  0
 29 30  1  0
 30 31  1  0
 31 32  1  0
 31 33  1  0
 33 34  1  0
 34 28  1  0
 27 35  1  0
 35 36  2  0
 36 24  1  0
 36 37  1  0
 37 38  1  0
 22 39  1  0
 39 40  2  0
 40 19  1  0
 40 11  1  0
 10 41  2  0
 41  6  1  0
M  END
> <Name>
CHEMBL3752139

> <pChEMBL_Value>
6.68

$$$$
CHEMBL4096988
  SciTegic08122012322D

 46 52  0  0  1  0            999 V2000
    4.5246   -7.2506    0.0000 C   0  0
    3.9195   -5.8781    0.0000 C   0  0
    4.8054   -4.6666    0.0000 C   0  0
    6.2966   -4.8284    0.0000 O   0  0
    4.2010   -3.2956    0.0000 N   0  0
    4.9531   -1.9978    0.0000 C   0  0
    3.9511   -0.8815    0.0000 C   0  0
    2.5987   -1.5004    0.0000 C   0  0  2  0  0  0
    1.2990   -0.7500    0.0000 N   0  0
    0.0000   -1.5000    0.0000 C   0  0
    0.0000   -3.0000    0.0000 O   0  0
   -1.2990   -0.7500    0.0000 N   0  0
   -2.5987   -1.5004    0.0000 C   0  0
   -3.8967   -0.7484    0.0000 C   0  0
   -5.1969   -1.4963    0.0000 C   0  0
   -6.4970   -0.7465    0.0000 O   0  0
   -7.7962   -1.4963    0.0000 C   0  0
   -5.1993   -2.9963    0.0000 C   0  0
   -3.9014   -3.7484    0.0000 C   0  0
   -2.6012   -3.0004    0.0000 C   0  0
   -1.3034   -3.7525    0.0000 F   0  0
   -1.2990    0.7500    0.0000 C   0  0
    0.0000    1.5000    0.0000 C   0  0
    0.0000    3.0000    0.0000 C   0  0
    1.2990    3.7500    0.0000 N   0  0
    2.5981    3.0000    0.0000 C   0  0
    3.8994    3.7477    0.0000 N   0  0
    5.1981    2.9955    0.0000 C   0  0
    6.4997    3.7409    0.0000 C   0  0
    7.7962    2.9864    0.0000 C   0  0
    7.7910    1.4864    0.0000 C   0  0
    9.0881    0.7316    0.0000 N   0  0
   10.4426    1.3458    0.0000 C   0  0
   11.4407    0.2260    0.0000 C   0  0  2  0  0  0
   12.9045   -0.0922    0.0000 C   0  0
   13.0537   -1.5847    0.0000 N   0  0
   14.3490   -2.3413    0.0000 C   0  0
   11.6804   -2.1879    0.0000 C   0  0
   10.6841   -1.0692    0.0000 C   0  0  2  0  0  0
    9.2185   -0.7500    0.0000 C   0  0
    6.4894    0.7409    0.0000 C   0  0
    6.4842   -0.7590    0.0000 C   0  0
    5.1929    1.4954    0.0000 C   0  0
    2.5981    1.5000    0.0000 N   0  0
    1.2990    0.7500    0.0000 C   0  0
    2.7343   -2.9815    0.0000 C   0  0
  1  2  1  0
  2  3  1  0
  3  4  2  0
  3  5  1  0
  5  6  1  0
  6  7  1  0
  7  8  1  0
  8  9  1  1
  9 10  1  0
 10 11  2  0
 10 12  1  0
 12 13  1  0
 13 14  2  0
 14 15  1  0
 15 16  1  0
 16 17  1  0
 15 18  2  0
 18 19  1  0
 19 20  2  0
 20 13  1  0
 20 21  1  0
 12 22  1  0
 22 23  1  0
 23 24  2  0
 24 25  1  0
 25 26  2  0
 26 27  1  0
 27 28  1  0
 28 29  2  0
 29 30  1  0
 30 31  2  0
 31 32  1  0
 32 33  1  0
 34 33  1  6
 34 35  1  0
 35 36  1  0
 36 37  1  0
 36 38  1  0
 39 38  1  6
 39 34  1  0
 39 40  1  0
 40 32  1  0
 31 41  1  0
 41 42  1  0
 41 43  2  0
 43 28  1  0
 26 44  1  0
 44 45  2  0
 45 23  1  0
 45  9  1  0
  8 46  1  0
 46  5  1  0
M  END
> <Name>
CHEMBL4096988

> <pChEMBL_Value>
6.67

$$$$
CHEMBL3633152
  SciTegic08122012322D

 38 41  0  0  0  0            999 V2000
    6.4757   -8.2656    0.0000 C   0  0
    5.1799   -7.5101    0.0000 C   0  0
    5.1854   -6.0093    0.0000 C   0  0
    6.4874   -5.2644    0.0000 O   0  0
    3.8888   -5.2533    0.0000 N   0  0
    3.8943   -3.7525    0.0000 C   0  0
    5.1945   -3.0045    0.0000 C   0  0
    5.1969   -1.5045    0.0000 C   0  0
    3.8991   -0.7525    0.0000 C   0  0
    2.5987   -1.5004    0.0000 C   0  0
    1.2990   -0.7500    0.0000 N   0  0
    1.2990    0.7500    0.0000 C   0  0
    2.5981    1.5000    0.0000 O   0  0
    0.0000    1.5000    0.0000 C   0  0
   -1.2990    0.7500    0.0000 C   0  0
   -2.5981    1.5000    0.0000 C   0  0
   -1.2990   -0.7500    0.0000 C   0  0
   -2.5981   -1.5000    0.0000 C   0  0
   -2.5981   -3.0000    0.0000 N   0  0
   -1.2990   -3.7500    0.0000 C   0  0
   -1.2959   -5.2508    0.0000 N   0  0
    0.0049   -5.9994    0.0000 C   0  0
    1.3014   -5.2449    0.0000 C   0  0
    2.6030   -5.9904    0.0000 C   0  0
    2.6082   -7.4904    0.0000 C   0  0
    3.9091   -8.2390    0.0000 O   0  0
    3.9121   -9.7398    0.0000 C   0  0
    5.2129  -10.4884    0.0000 C   0  0
    5.2160  -11.9892    0.0000 N   0  0
    6.5160  -12.7374    0.0000 C   0  0
    3.9182  -12.7415    0.0000 C   0  0
    1.3118   -8.2449    0.0000 C   0  0
    0.0102   -7.4994    0.0000 C   0  0
   -1.2854   -8.2570    0.0000 O   0  0
   -1.2780   -9.7570    0.0000 C   0  0
    0.0000   -3.0000    0.0000 N   0  0
    0.0000   -1.5000    0.0000 C   0  0
    2.5965   -3.0004    0.0000 C   0  0
  1  2  2  0
  2  3  1  0
  3  4  2  0
  3  5  1  0
  5  6  1  0
  6  7  2  0
  7  8  1  0
  8  9  2  0
  9 10  1  0
 10 11  1  0
 11 12  1  0
 12 13  2  0
 12 14  1  0
 14 15  2  0
 15 16  1  0
 15 17  1  0
 17 18  2  0
 18 19  1  0
 19 20  2  0
 20 21  1  0
 21 22  1  0
 22 23  2  0
 23 24  1  0
 24 25  2  0
 25 26  1  0
 26 27  1  0
 27 28  1  0
 28 29  1  0
 29 30  1  0
 29 31  1  0
 25 32  1  0
 32 33  2  0
 33 22  1  0
 33 34  1  0
 34 35  1  0
 20 36  1  0
 36 37  2  0
 37 17  1  0
 37 11  1  0
 10 38  2  0
 38  6  1  0
M  END
> <Name>
CHEMBL3633152

> <pChEMBL_Value>
6.66

$$$$
CHEMBL4078973
  SciTegic08122012322D

 47 53  0  0  1  0            999 V2000
    4.5246   -7.2506    0.0000 C   0  0
    3.9195   -5.8781    0.0000 C   0  0
    4.8054   -4.6666    0.0000 C   0  0
    6.2966   -4.8284    0.0000 O   0  0
    4.2010   -3.2956    0.0000 N   0  0
    4.9531   -1.9978    0.0000 C   0  0
    3.9511   -0.8815    0.0000 C   0  0
    2.5987   -1.5004    0.0000 C   0  0  2  0  0  0
    1.2990   -0.7500    0.0000 N   0  0
    0.0000   -1.5000    0.0000 C   0  0
    0.0000   -3.0000    0.0000 O   0  0
   -1.2990   -0.7500    0.0000 N   0  0
   -2.5987   -1.5004    0.0000 C   0  0
   -3.8967   -0.7484    0.0000 C   0  0
   -5.1969   -1.4963    0.0000 C   0  0
   -6.4970   -0.7465    0.0000 O   0  0
   -7.7962   -1.4963    0.0000 C   0  0
   -5.1993   -2.9963    0.0000 C   0  0
   -3.9014   -3.7484    0.0000 C   0  0
   -2.6012   -3.0004    0.0000 C   0  0
   -1.3034   -3.7525    0.0000 F   0  0
   -1.2990    0.7500    0.0000 C   0  0
    0.0000    1.5000    0.0000 C   0  0
    0.0000    3.0000    0.0000 C   0  0
    1.2990    3.7500    0.0000 N   0  0
    2.5981    3.0000    0.0000 C   0  0
    3.8994    3.7477    0.0000 N   0  0
    5.1981    2.9955    0.0000 C   0  0
    6.4997    3.7409    0.0000 C   0  0
    7.7962    2.9864    0.0000 C   0  0
    7.7910    1.4864    0.0000 C   0  0
    9.0881    0.7316    0.0000 N   0  0
   10.4982    1.1297    0.0000 C   0  0
   10.8770   -0.3133    0.0000 C   0  0
   10.8740   -1.8125    0.0000 C   0  0
   12.1753   -2.5726    0.0000 C   0  0
   13.4797   -1.8335    0.0000 N   0  0
   14.7749   -2.5901    0.0000 C   0  0
   13.4827   -0.3343    0.0000 C   0  0
   12.1814    0.4258    0.0000 C   0  0
    9.4340   -0.6922    0.0000 C   0  0
    6.4894    0.7409    0.0000 C   0  0
    6.4842   -0.7590    0.0000 C   0  0
    5.1929    1.4954    0.0000 C   0  0
    2.5981    1.5000    0.0000 N   0  0
    1.2990    0.7500    0.0000 C   0  0
    2.7343   -2.9815    0.0000 C   0  0
  1  2  1  0
  2  3  1  0
  3  4  2  0
  3  5  1  0
  5  6  1  0
  6  7  1  0
  7  8  1  0
  8  9  1  1
  9 10  1  0
 10 11  2  0
 10 12  1  0
 12 13  1  0
 13 14  2  0
 14 15  1  0
 15 16  1  0
 16 17  1  0
 15 18  2  0
 18 19  1  0
 19 20  2  0
 20 13  1  0
 20 21  1  0
 12 22  1  0
 22 23  1  0
 23 24  2  0
 24 25  1  0
 25 26  2  0
 26 27  1  0
 27 28  1  0
 28 29  2  0
 29 30  1  0
 30 31  2  0
 31 32  1  0
 32 33  1  0
 33 34  1  0
 34 35  1  0
 35 36  1  0
 36 37  1  0
 37 38  1  0
 37 39  1  0
 39 40  1  0
 40 34  1  0
 34 41  1  0
 41 32  1  0
 31 42  1  0
 42 43  1  0
 42 44  2  0
 44 28  1  0
 26 45  1  0
 45 46  2  0
 46 23  1  0
 46  9  1  0
  8 47  1  0
 47  5  1  0
M  END
> <Name>
CHEMBL4078973

> <pChEMBL_Value>
6.66

$$$$
CHEMBL3754213
  SciTegic08122012322D

 41 45  0  0  0  0            999 V2000
    6.4757   -8.2656    0.0000 C   0  0
    5.1799   -7.5101    0.0000 C   0  0
    5.1854   -6.0093    0.0000 C   0  0
    6.4874   -5.2644    0.0000 O   0  0
    3.8888   -5.2533    0.0000 N   0  0
    3.8943   -3.7525    0.0000 C   0  0
    5.1945   -3.0045    0.0000 C   0  0
    5.1969   -1.5045    0.0000 C   0  0
    3.8991   -0.7525    0.0000 C   0  0
    2.5987   -1.5004    0.0000 C   0  0
    1.2990   -0.7500    0.0000 N   0  0
    0.0000   -1.5000    0.0000 C   0  0
    0.0000   -3.0000    0.0000 O   0  0
   -1.2990   -0.7500    0.0000 C   0  0
   -1.2990    0.7500    0.0000 C   0  0
   -2.5981    1.5000    0.0000 C   0  0
    0.0000    1.5000    0.0000 C   0  0
    0.0000    3.0000    0.0000 C   0  0
    1.2990    3.7500    0.0000 N   0  0
    2.5981    3.0000    0.0000 C   0  0
    3.8994    3.7477    0.0000 N   0  0
    5.1981    2.9955    0.0000 C   0  0
    5.1929    1.4954    0.0000 C   0  0
    6.4894    0.7409    0.0000 C   0  0
    7.7910    1.4865    0.0000 C   0  0
    9.0881    0.7316    0.0000 N   0  0
    9.0854   -0.7685    0.0000 C   0  0
   10.3830   -1.5209    0.0000 C   0  0
   11.6835   -0.7733    0.0000 N   0  0
   12.9811   -1.5257    0.0000 C   0  0
   11.6863    0.7267    0.0000 C   0  0
   10.3886    1.4791    0.0000 C   0  0
    7.7962    2.9864    0.0000 C   0  0
    6.4997    3.7409    0.0000 C   0  0
    6.5081    5.2417    0.0000 O   0  0
    7.8115    5.9858    0.0000 C   0  0
    7.8198    7.4866    0.0000 C   0  0
    9.1225    8.2302    0.0000 C   0  0
    2.5981    1.5000    0.0000 N   0  0
    1.2990    0.7500    0.0000 C   0  0
    2.5965   -3.0004    0.0000 C   0  0
  1  2  2  0
  2  3  1  0
  3  4  2  0
  3  5  1  0
  5  6  1  0
  6  7  2  0
  7  8  1  0
  8  9  2  0
  9 10  1  0
 10 11  1  0
 11 12  1  0
 12 13  2  0
 12 14  1  0
 14 15  2  0
 15 16  1  0
 15 17  1  0
 17 18  2  0
 18 19  1  0
 19 20  2  0
 20 21  1  0
 21 22  1  0
 22 23  2  0
 23 24  1  0
 24 25  2  0
 25 26  1  0
 26 27  1  0
 27 28  1  0
 28 29  1  0
 29 30  1  0
 29 31  1  0
 31 32  1  0
 32 26  1  0
 25 33  1  0
 33 34  2  0
 34 22  1  0
 34 35  1  0
 35 36  1  0
 36 37  1  0
 37 38  1  0
 20 39  1  0
 39 40  2  0
 40 17  1  0
 40 11  1  0
 10 41  2  0
 41  6  1  0
M  END
> <Name>
CHEMBL3754213

> <pChEMBL_Value>
6.57

$$$$
CHEMBL4083916
  SciTegic08122012322D

 46 51  0  0  1  0            999 V2000
    4.5246   -7.2506    0.0000 C   0  0
    3.9195   -5.8781    0.0000 C   0  0
    4.8054   -4.6666    0.0000 C   0  0
    6.2966   -4.8284    0.0000 O   0  0
    4.2010   -3.2956    0.0000 N   0  0
    4.9531   -1.9978    0.0000 C   0  0
    3.9511   -0.8815    0.0000 C   0  0
    2.5987   -1.5004    0.0000 C   0  0  2  0  0  0
    1.2990   -0.7500    0.0000 N   0  0
    0.0000   -1.5000    0.0000 C   0  0
    0.0000   -3.0000    0.0000 O   0  0
   -1.2990   -0.7500    0.0000 N   0  0
   -2.5987   -1.5004    0.0000 C   0  0
   -3.8967   -0.7484    0.0000 C   0  0
   -5.1969   -1.4963    0.0000 C   0  0
   -6.4970   -0.7465    0.0000 O   0  0
   -7.7962   -1.4963    0.0000 C   0  0
   -5.1993   -2.9963    0.0000 C   0  0
   -3.9014   -3.7484    0.0000 C   0  0
   -2.6012   -3.0004    0.0000 C   0  0
   -1.3034   -3.7525    0.0000 F   0  0
   -1.2990    0.7500    0.0000 C   0  0
    0.0000    1.5000    0.0000 C   0  0
    0.0000    3.0000    0.0000 C   0  0
    1.2990    3.7500    0.0000 N   0  0
    2.5981    3.0000    0.0000 C   0  0
    3.8994    3.7477    0.0000 N   0  0
    5.1981    2.9955    0.0000 C   0  0
    6.4997    3.7409    0.0000 C   0  0
    7.7962    2.9864    0.0000 C   0  0
    7.7910    1.4864    0.0000 C   0  0
    9.0881    0.7316    0.0000 N   0  0
   10.3910    1.4750    0.0000 C   0  0
   11.6862    0.7184    0.0000 C   0  0
   11.6787   -0.7816    0.0000 N   0  0
   12.9739   -1.5381    0.0000 C   0  0
   10.3759   -1.5250    0.0000 C   0  0
    9.0806   -0.7685    0.0000 C   0  0
    6.4894    0.7409    0.0000 C   0  0
    6.4811   -0.7599    0.0000 C   0  0
    5.1784   -1.5035    0.0000 C   0  0
    7.7762   -1.5166    0.0000 C   0  0
    5.1929    1.4954    0.0000 C   0  0
    2.5981    1.5000    0.0000 N   0  0
    1.2990    0.7500    0.0000 C   0  0
    2.7343   -2.9815    0.0000 C   0  0
  1  2  1  0
  2  3  1  0
  3  4  2  0
  3  5  1  0
  5  6  1  0
  6  7  1  0
  7  8  1  0
  8  9  1  1
  9 10  1  0
 10 11  2  0
 10 12  1  0
 12 13  1  0
 13 14  2  0
 14 15  1  0
 15 16  1  0
 16 17  1  0
 15 18  2  0
 18 19  1  0
 19 20  2  0
 20 13  1  0
 20 21  1  0
 12 22  1  0
 22 23  1  0
 23 24  2  0
 24 25  1  0
 25 26  2  0
 26 27  1  0
 27 28  1  0
 28 29  2  0
 29 30  1  0
 30 31  2  0
 31 32  1  0
 32 33  1  0
 33 34  1  0
 34 35  1  0
 35 36  1  0
 35 37  1  0
 37 38  1  0
 38 32  1  0
 31 39  1  0
 39 40  1  0
 40 41  1  0
 40 42  1  0
 39 43  2  0
 43 28  1  0
 26 44  1  0
 44 45  2  0
 45 23  1  0
 45  9  1  0
  8 46  1  0
 46  5  1  0
M  END
> <Name>
CHEMBL4083916

> <pChEMBL_Value>
6.44

$$$$
CHEMBL4096822
  SciTegic08122012322D

 44 49  0  0  1  0            999 V2000
    4.5246   -7.2506    0.0000 C   0  0
    3.9195   -5.8781    0.0000 C   0  0
    4.8054   -4.6666    0.0000 C   0  0
    6.2966   -4.8284    0.0000 O   0  0
    4.2010   -3.2956    0.0000 N   0  0
    4.9531   -1.9978    0.0000 C   0  0
    3.9511   -0.8815    0.0000 C   0  0
    2.5987   -1.5004    0.0000 C   0  0  2  0  0  0
    1.2990   -0.7500    0.0000 N   0  0
    0.0000   -1.5000    0.0000 C   0  0
    0.0000   -3.0000    0.0000 O   0  0
   -1.2990   -0.7500    0.0000 N   0  0
   -2.5987   -1.5004    0.0000 C   0  0
   -3.8967   -0.7484    0.0000 C   0  0
   -5.1969   -1.4963    0.0000 C   0  0
   -6.4970   -0.7465    0.0000 O   0  0
   -7.7962   -1.4963    0.0000 C   0  0
   -5.1993   -2.9963    0.0000 C   0  0
   -3.9014   -3.7484    0.0000 C   0  0
   -2.6012   -3.0004    0.0000 C   0  0
   -1.3034   -3.7525    0.0000 F   0  0
   -1.2990    0.7500    0.0000 C   0  0
    0.0000    1.5000    0.0000 C   0  0
    0.0000    3.0000    0.0000 C   0  0
    1.2990    3.7500    0.0000 N   0  0
    2.5981    3.0000    0.0000 C   0  0
    3.8994    3.7477    0.0000 N   0  0
    5.1981    2.9955    0.0000 C   0  0
    6.4997    3.7409    0.0000 C   0  0
    7.7962    2.9864    0.0000 C   0  0
    7.7910    1.4864    0.0000 C   0  0
    9.0881    0.7316    0.0000 N   0  0
   10.3910    1.4750    0.0000 C   0  0
   11.6862    0.7184    0.0000 C   0  0
   11.6787   -0.7816    0.0000 N   0  0
   12.9739   -1.5381    0.0000 C   0  0
   10.3759   -1.5250    0.0000 C   0  0
    9.0806   -0.7685    0.0000 C   0  0
    6.4894    0.7409    0.0000 C   0  0
    6.4842   -0.7590    0.0000 C   0  0
    5.1929    1.4954    0.0000 C   0  0
    2.5981    1.5000    0.0000 N   0  0
    1.2990    0.7500    0.0000 C   0  0
    2.7343   -2.9815    0.0000 C   0  0
  1  2  1  0
  2  3  1  0
  3  4  2  0
  3  5  1  0
  5  6  1  0
  6  7  1  0
  7  8  1  0
  8  9  1  1
  9 10  1  0
 10 11  2  0
 10 12  1  0
 12 13  1  0
 13 14  2  0
 14 15  1  0
 15 16  1  0
 16 17  1  0
 15 18  2  0
 18 19  1  0
 19 20  2  0
 20 13  1  0
 20 21  1  0
 12 22  1  0
 22 23  1  0
 23 24  2  0
 24 25  1  0
 25 26  2  0
 26 27  1  0
 27 28  1  0
 28 29  2  0
 29 30  1  0
 30 31  2  0
 31 32  1  0
 32 33  1  0
 33 34  1  0
 34 35  1  0
 35 36  1  0
 35 37  1  0
 37 38  1  0
 38 32  1  0
 31 39  1  0
 39 40  1  0
 39 41  2  0
 41 28  1  0
 26 42  1  0
 42 43  2  0
 43 23  1  0
 43  9  1  0
  8 44  1  0
 44  5  1  0
M  END
> <Name>
CHEMBL4096822

> <pChEMBL_Value>
6.44

$$$$
CHEMBL4084726
  SciTegic08122012322D

 44 49  0  0  1  0            999 V2000
    4.5246   -7.2506    0.0000 C   0  0
    3.9195   -5.8781    0.0000 C   0  0
    4.8054   -4.6666    0.0000 C   0  0
    6.2966   -4.8284    0.0000 O   0  0
    4.2010   -3.2956    0.0000 N   0  0
    4.9531   -1.9978    0.0000 C   0  0
    3.9511   -0.8815    0.0000 C   0  0
    2.5987   -1.5004    0.0000 C   0  0  2  0  0  0
    1.2990   -0.7500    0.0000 N   0  0
    0.0000   -1.5000    0.0000 C   0  0
    0.0000   -3.0000    0.0000 O   0  0
   -1.2990   -0.7500    0.0000 N   0  0
   -2.5987   -1.5004    0.0000 C   0  0
   -3.8967   -0.7484    0.0000 C   0  0
   -5.1969   -1.4963    0.0000 C   0  0
   -6.4970   -0.7465    0.0000 O   0  0
   -7.7962   -1.4963    0.0000 C   0  0
   -5.1993   -2.9963    0.0000 C   0  0
   -3.9014   -3.7484    0.0000 C   0  0
   -2.6012   -3.0004    0.0000 C   0  0
   -1.3034   -3.7525    0.0000 Cl  0  0
   -1.2990    0.7500    0.0000 C   0  0
    0.0000    1.5000    0.0000 C   0  0
    0.0000    3.0000    0.0000 C   0  0
    1.2990    3.7500    0.0000 N   0  0
    2.5981    3.0000    0.0000 C   0  0
    3.8994    3.7477    0.0000 N   0  0
    5.1981    2.9955    0.0000 C   0  0
    6.4997    3.7409    0.0000 C   0  0
    7.7962    2.9864    0.0000 C   0  0
    7.7910    1.4864    0.0000 C   0  0
    9.0881    0.7316    0.0000 N   0  0
   10.3910    1.4750    0.0000 C   0  0
   11.6862    0.7184    0.0000 C   0  0
   11.6787   -0.7816    0.0000 N   0  0
   12.9739   -1.5381    0.0000 C   0  0
   10.3759   -1.5250    0.0000 C   0  0
    9.0806   -0.7685    0.0000 C   0  0
    6.4894    0.7409    0.0000 C   0  0
    6.4842   -0.7590    0.0000 C   0  0
    5.1929    1.4954    0.0000 C   0  0
    2.5981    1.5000    0.0000 N   0  0
    1.2990    0.7500    0.0000 C   0  0
    2.7343   -2.9815    0.0000 C   0  0
  1  2  1  0
  2  3  1  0
  3  4  2  0
  3  5  1  0
  5  6  1  0
  6  7  1  0
  7  8  1  0
  8  9  1  1
  9 10  1  0
 10 11  2  0
 10 12  1  0
 12 13  1  0
 13 14  2  0
 14 15  1  0
 15 16  1  0
 16 17  1  0
 15 18  2  0
 18 19  1  0
 19 20  2  0
 20 13  1  0
 20 21  1  0
 12 22  1  0
 22 23  1  0
 23 24  2  0
 24 25  1  0
 25 26  2  0
 26 27  1  0
 27 28  1  0
 28 29  2  0
 29 30  1  0
 30 31  2  0
 31 32  1  0
 32 33  1  0
 33 34  1  0
 34 35  1  0
 35 36  1  0
 35 37  1  0
 37 38  1  0
 38 32  1  0
 31 39  1  0
 39 40  1  0
 39 41  2  0
 41 28  1  0
 26 42  1  0
 42 43  2  0
 43 23  1  0
 43  9  1  0
  8 44  1  0
 44  5  1  0
M  END
> <Name>
CHEMBL4084726

> <pChEMBL_Value>
6.43

$$$$
CHEMBL2437468
  SciTegic08122012322D

 38 42  0  0  0  0            999 V2000
    7.7795   -7.5156    0.0000 C   0  0
    7.7840   -6.0157    0.0000 C   0  0
    6.4870   -5.2605    0.0000 C   0  0
    5.1855   -6.0062    0.0000 O   0  0
    6.4915   -3.7597    0.0000 N   0  0
    5.1945   -3.0045    0.0000 C   0  0
    5.1969   -1.5045    0.0000 C   0  0
    3.8991   -0.7525    0.0000 C   0  0
    2.5987   -1.5004    0.0000 C   0  0
    1.2990   -0.7500    0.0000 N   0  0
    1.2990    0.7500    0.0000 C   0  0
    2.5981    1.5000    0.0000 O   0  0
    0.0000    1.5000    0.0000 C   0  0
   -1.2990    0.7500    0.0000 N   0  0
   -1.2990   -0.7500    0.0000 C   0  0
   -2.5981   -1.5000    0.0000 C   0  0
   -2.5981   -3.0000    0.0000 N   0  0
   -1.2990   -3.7500    0.0000 C   0  0
   -1.2959   -5.2508    0.0000 N   0  0
    0.0049   -5.9994    0.0000 C   0  0
    1.3014   -5.2449    0.0000 C   0  0
    2.6030   -5.9904    0.0000 C   0  0
    2.6082   -7.4904    0.0000 C   0  0
    3.9105   -8.2363    0.0000 N   0  0
    5.2082   -7.4839    0.0000 C   0  0
    6.5087   -8.2315    0.0000 C   0  0
    6.5115   -9.7315    0.0000 N   0  0
    7.8119  -10.4791    0.0000 C   0  0
    5.2139  -10.4839    0.0000 C   0  0
    3.9134   -9.7363    0.0000 C   0  0
    1.3118   -8.2449    0.0000 C   0  0
    0.0102   -7.4994    0.0000 C   0  0
   -1.2854   -8.2570    0.0000 O   0  0
   -1.2780   -9.7570    0.0000 C   0  0
    0.0000   -3.0000    0.0000 N   0  0
    0.0000   -1.5000    0.0000 C   0  0
    2.5965   -3.0004    0.0000 C   0  0
    3.8943   -3.7525    0.0000 C   0  0
  1  2  2  0
  2  3  1  0
  3  4  2  0
  3  5  1  0
  5  6  1  0
  6  7  2  0
  7  8  1  0
  8  9  2  0
  9 10  1  0
 10 11  1  0
 11 12  2  0
 11 13  1  0
 13 14  2  0
 14 15  1  0
 15 16  2  0
 16 17  1  0
 17 18  2  0
 18 19  1  0
 19 20  1  0
 20 21  2  0
 21 22  1  0
 22 23  2  0
 23 24  1  0
 24 25  1  0
 25 26  1  0
 26 27  1  0
 27 28  1  0
 27 29  1  0
 29 30  1  0
 30 24  1  0
 23 31  1  0
 31 32  2  0
 32 20  1  0
 32 33  1  0
 33 34  1  0
 18 35  1  0
 35 36  2  0
 36 15  1  0
 36 10  1  0
  9 37  1  0
 37 38  2  0
 38  6  1  0
M  END
> <Name>
CHEMBL2437468

> <pChEMBL_Value>
6.40

$$$$
CHEMBL3601223
  SciTegic08122012322D

 36 39  0  0  0  0            999 V2000
    3.8912   -5.2570    0.0000 C   0  0
    3.8933   -3.7570    0.0000 C   0  0
    2.5951   -3.0039    0.0000 C   0  0
    1.2948   -3.7516    0.0000 O   0  0
    2.5973   -1.5031    0.0000 N   0  0
    1.2990   -0.7500    0.0000 C   0  0
    1.2990    0.7500    0.0000 C   0  0
    0.0000    1.5000    0.0000 C   0  0
   -1.2990    0.7500    0.0000 C   0  0
   -1.2990   -0.7500    0.0000 C   0  0
   -2.5972   -1.5031    0.0000 C   0  0
   -2.5951   -3.0039    0.0000 N   0  0
   -3.8933   -3.7570    0.0000 C   0  0
   -5.1925   -3.0071    0.0000 N   0  0
   -6.4915   -3.7571    0.0000 C   0  0
   -7.7928   -3.0094    0.0000 N   0  0
   -9.0915   -3.7617    0.0000 C   0  0
   -9.0863   -5.2618    0.0000 C   0  0
  -10.3827   -6.0163    0.0000 C   0  0
  -11.6844   -5.2708    0.0000 C   0  0
  -12.9814   -6.0257    0.0000 N   0  0
  -12.9787   -7.5258    0.0000 C   0  0
  -14.2763   -8.2783    0.0000 C   0  0
  -15.5768   -7.5307    0.0000 N   0  0
  -16.8744   -8.2832    0.0000 C   0  0
  -15.5796   -6.0307    0.0000 C   0  0
  -14.2820   -5.2783    0.0000 C   0  0
  -11.6896   -3.7708    0.0000 C   0  0
  -10.3932   -3.0163    0.0000 C   0  0
  -10.4016   -1.5155    0.0000 O   0  0
  -11.7043   -0.7719    0.0000 C   0  0
   -6.4914   -5.2571    0.0000 N   0  0
   -5.1924   -6.0071    0.0000 C   0  0
   -3.8934   -5.2570    0.0000 C   0  0
   -2.5943   -6.0070    0.0000 Cl  0  0
    0.0000   -1.5000    0.0000 C   0  0
  1  2  2  0
  2  3  1  0
  3  4  2  0
  3  5  1  0
  5  6  1  0
  6  7  2  0
  7  8  1  0
  8  9  2  0
  9 10  1  0
 10 11  1  0
 11 12  1  0
 12 13  1  0
 13 14  2  0
 14 15  1  0
 15 16  1  0
 16 17  1  0
 17 18  2  0
 18 19  1  0
 19 20  2  0
 20 21  1  0
 21 22  1  0
 22 23  1  0
 23 24  1  0
 24 25  1  0
 24 26  1  0
 26 27  1  0
 27 21  1  0
 20 28  1  0
 28 29  2  0
 29 17  1  0
 29 30  1  0
 30 31  1  0
 15 32  2  0
 32 33  1  0
 33 34  2  0
 34 13  1  0
 34 35  1  0
 10 36  2  0
 36  6  1  0
M  END
> <Name>
CHEMBL3601223

> <pChEMBL_Value>
6.39

$$$$
CHEMBL4063067
  SciTegic08122012322D

 44 49  0  0  1  0            999 V2000
    4.5246   -7.2506    0.0000 C   0  0
    3.9195   -5.8781    0.0000 C   0  0
    4.8054   -4.6666    0.0000 C   0  0
    6.2966   -4.8284    0.0000 O   0  0
    4.2010   -3.2956    0.0000 N   0  0
    4.9531   -1.9978    0.0000 C   0  0
    3.9511   -0.8815    0.0000 C   0  0
    2.5987   -1.5004    0.0000 C   0  0  2  0  0  0
    1.2990   -0.7500    0.0000 N   0  0
    0.0000   -1.5000    0.0000 C   0  0
    0.0000   -3.0000    0.0000 O   0  0
   -1.2990   -0.7500    0.0000 N   0  0
   -2.5987   -1.5004    0.0000 C   0  0
   -3.8967   -0.7484    0.0000 C   0  0
   -5.1969   -1.4963    0.0000 C   0  0
   -5.1993   -2.9963    0.0000 C   0  0
   -3.9014   -3.7484    0.0000 C   0  0
   -3.9069   -5.2492    0.0000 O   0  0
   -5.2082   -5.9953    0.0000 C   0  0
   -2.6012   -3.0004    0.0000 C   0  0
   -1.3034   -3.7525    0.0000 Cl  0  0
   -1.2990    0.7500    0.0000 C   0  0
    0.0000    1.5000    0.0000 C   0  0
    0.0000    3.0000    0.0000 C   0  0
    1.2990    3.7500    0.0000 N   0  0
    2.5981    3.0000    0.0000 C   0  0
    3.8994    3.7477    0.0000 N   0  0
    5.1981    2.9955    0.0000 C   0  0
    6.4997    3.7409    0.0000 C   0  0
    7.7962    2.9864    0.0000 C   0  0
    7.7910    1.4864    0.0000 C   0  0
    9.0881    0.7316    0.0000 N   0  0
   10.3910    1.4750    0.0000 C   0  0
   11.6862    0.7184    0.0000 C   0  0
   11.6787   -0.7816    0.0000 N   0  0
   12.9739   -1.5381    0.0000 C   0  0
   10.3759   -1.5250    0.0000 C   0  0
    9.0806   -0.7685    0.0000 C   0  0
    6.4894    0.7409    0.0000 C   0  0
    6.4842   -0.7590    0.0000 C   0  0
    5.1929    1.4954    0.0000 C   0  0
    2.5981    1.5000    0.0000 N   0  0
    1.2990    0.7500    0.0000 C   0  0
    2.7343   -2.9815    0.0000 C   0  0
  1  2  1  0
  2  3  1  0
  3  4  2  0
  3  5  1  0
  5  6  1  0
  6  7  1  0
  7  8  1  0
  8  9  1  1
  9 10  1  0
 10 11  2  0
 10 12  1  0
 12 13  1  0
 13 14  2  0
 14 15  1  0
 15 16  2  0
 16 17  1  0
 17 18  1  0
 18 19  1  0
 17 20  2  0
 20 13  1  0
 20 21  1  0
 12 22  1  0
 22 23  1  0
 23 24  2  0
 24 25  1  0
 25 26  2  0
 26 27  1  0
 27 28  1  0
 28 29  2  0
 29 30  1  0
 30 31  2  0
 31 32  1  0
 32 33  1  0
 33 34  1  0
 34 35  1  0
 35 36  1  0
 35 37  1  0
 37 38  1  0
 38 32  1  0
 31 39  1  0
 39 40  1  0
 39 41  2  0
 41 28  1  0
 26 42  1  0
 42 43  2  0
 43 23  1  0
 43  9  1  0
  8 44  1  0
 44  5  1  0
M  END
> <Name>
CHEMBL4063067

> <pChEMBL_Value>
6.38

$$$$
CHEMBL4078801
  SciTegic08122012322D

 44 49  0  0  1  0            999 V2000
    4.5246   -7.2506    0.0000 C   0  0
    3.9195   -5.8781    0.0000 C   0  0
    4.8054   -4.6666    0.0000 C   0  0
    6.2966   -4.8284    0.0000 O   0  0
    4.2010   -3.2956    0.0000 N   0  0
    4.9531   -1.9978    0.0000 C   0  0
    3.9511   -0.8815    0.0000 C   0  0
    2.5987   -1.5004    0.0000 C   0  0  2  0  0  0
    1.2990   -0.7500    0.0000 N   0  0
    0.0000   -1.5000    0.0000 C   0  0
    0.0000   -3.0000    0.0000 O   0  0
   -1.2990   -0.7500    0.0000 N   0  0
   -2.5987   -1.5004    0.0000 C   0  0
   -3.8967   -0.7484    0.0000 C   0  0
   -5.1969   -1.4963    0.0000 C   0  0
   -5.1993   -2.9963    0.0000 C   0  0
   -3.9014   -3.7484    0.0000 C   0  0
   -3.9069   -5.2492    0.0000 O   0  0
   -5.2082   -5.9953    0.0000 C   0  0
   -2.6012   -3.0004    0.0000 C   0  0
   -1.3034   -3.7525    0.0000 F   0  0
   -1.2990    0.7500    0.0000 C   0  0
    0.0000    1.5000    0.0000 C   0  0
    0.0000    3.0000    0.0000 C   0  0
    1.2990    3.7500    0.0000 N   0  0
    2.5981    3.0000    0.0000 C   0  0
    3.8994    3.7477    0.0000 N   0  0
    5.1981    2.9955    0.0000 C   0  0
    6.4997    3.7409    0.0000 C   0  0
    7.7962    2.9864    0.0000 C   0  0
    7.7910    1.4864    0.0000 C   0  0
    9.0881    0.7316    0.0000 N   0  0
   10.3910    1.4750    0.0000 C   0  0
   11.6862    0.7184    0.0000 C   0  0
   11.6787   -0.7816    0.0000 N   0  0
   12.9739   -1.5381    0.0000 C   0  0
   10.3759   -1.5250    0.0000 C   0  0
    9.0806   -0.7685    0.0000 C   0  0
    6.4894    0.7409    0.0000 C   0  0
    6.4842   -0.7590    0.0000 C   0  0
    5.1929    1.4954    0.0000 C   0  0
    2.5981    1.5000    0.0000 N   0  0
    1.2990    0.7500    0.0000 C   0  0
    2.7343   -2.9815    0.0000 C   0  0
  1  2  1  0
  2  3  1  0
  3  4  2  0
  3  5  1  0
  5  6  1  0
  6  7  1  0
  7  8  1  0
  8  9  1  1
  9 10  1  0
 10 11  2  0
 10 12  1  0
 12 13  1  0
 13 14  2  0
 14 15  1  0
 15 16  2  0
 16 17  1  0
 17 18  1  0
 18 19  1  0
 17 20  2  0
 20 13  1  0
 20 21  1  0
 12 22  1  0
 22 23  1  0
 23 24  2  0
 24 25  1  0
 25 26  2  0
 26 27  1  0
 27 28  1  0
 28 29  2  0
 29 30  1  0
 30 31  2  0
 31 32  1  0
 32 33  1  0
 33 34  1  0
 34 35  1  0
 35 36  1  0
 35 37  1  0
 37 38  1  0
 38 32  1  0
 31 39  1  0
 39 40  1  0
 39 41  2  0
 41 28  1  0
 26 42  1  0
 42 43  2  0
 43 23  1  0
 43  9  1  0
  8 44  1  0
 44  5  1  0
M  END
> <Name>
CHEMBL4078801

> <pChEMBL_Value>
6.38

$$$$
CHEMBL4081429
  SciTegic08122012322D

 39 44  0  0  0  0            999 V2000
    0.4248    2.2256    0.0000 C   0  0
    1.0683    3.5805    0.0000 C   0  0
    2.5642    3.7017    0.0000 C   0  0
    3.4163    2.4672    0.0000 O   0  0
    3.2081    5.0574    0.0000 N   0  0
    4.7041    5.1786    0.0000 C   0  0
    5.5540    3.9426    0.0000 C   0  0
    7.0494    4.0606    0.0000 C   0  0
    7.8972    2.8222    0.0000 N   0  0
    9.3937    2.9363    0.0000 C   0  0
   10.2429    1.6998    0.0000 N   0  0
   11.7383    1.8169    0.0000 C   0  0
   12.3846    3.1706    0.0000 C   0  0
   11.5375    4.4025    0.0000 C   0  0
   12.0803    5.8016    0.0000 C   0  0
   13.5306    6.1846    0.0000 C   0  0
   13.6142    7.6815    0.0000 N   0  0
   12.2158    8.2241    0.0000 C   0  0
   11.9864    9.7064    0.0000 C   0  0
   10.4754   10.0436    0.0000 C   0  0
    9.4109    8.9868    0.0000 C   0  0
    9.7939    7.5365    0.0000 C   0  0
   11.2679    7.0625    0.0000 C   0  0
   13.1555   10.6462    0.0000 C   0  0
   14.5540   10.1036    0.0000 C   0  0
   14.7833    8.6213    0.0000 C   0  0
   10.0400    4.2899    0.0000 N   0  0
    7.6948    5.4147    0.0000 C   0  0
    9.1907    5.5359    0.0000 O   0  0
    9.8342    6.8909    0.0000 C   0  0
    6.8449    6.6507    0.0000 C   0  0
    5.3495    6.5326    0.0000 C   0  0
    4.4992    7.7692    0.0000 N   0  0
    5.1424    9.1244    0.0000 C   0  0
    4.2906   10.3590    0.0000 C   0  0
    2.7954   10.2386    0.0000 N   0  0
    2.1521    8.8835    0.0000 C   0  0
    0.6569    8.7631    0.0000 O   0  0
    3.0040    7.6489    0.0000 C   0  0
  1  2  2  0
  2  3  1  0
  3  4  2  0
  3  5  1  0
  5  6  1  0
  6  7  2  0
  7  8  1  0
  8  9  1  0
  9 10  1  0
 10 11  2  0
 11 12  1  0
 12 13  2  0
 13 14  1  0
 14 15  1  0
 15 16  2  0
 16 17  1  0
 17 18  1  0
 18 19  2  0
 19 20  1  0
 20 21  2  0
 21 22  1  0
 22 23  2  0
 23 15  1  0
 23 18  1  0
 19 24  1  0
 24 25  1  0
 25 26  1  0
 26 17  1  0
 14 27  2  0
 27 10  1  0
  8 28  2  0
 28 29  1  0
 29 30  1  0
 28 31  1  0
 31 32  2  0
 32  6  1  0
 32 33  1  0
 33 34  1  0
 34 35  1  0
 35 36  1  0
 36 37  1  0
 37 38  2  0
 37 39  1  0
 39 33  1  0
M  END
> <Name>
CHEMBL4081429

> <pChEMBL_Value>
6.37

$$$$
CHEMBL4073062
  SciTegic08122012322D

 37 41  0  0  1  0            999 V2000
    4.5246   -7.2506    0.0000 C   0  0
    3.9195   -5.8781    0.0000 C   0  0
    4.8054   -4.6666    0.0000 C   0  0
    6.2966   -4.8284    0.0000 O   0  0
    4.2010   -3.2956    0.0000 N   0  0
    4.9531   -1.9978    0.0000 C   0  0
    3.9511   -0.8815    0.0000 C   0  0
    2.5987   -1.5004    0.0000 C   0  0  1  0  0  0
    1.2990   -0.7500    0.0000 N   0  0
    1.2990    0.7500    0.0000 C   0  0
    2.5981    1.5000    0.0000 O   0  0
    0.0000    1.5000    0.0000 C   0  0
   -1.2990    0.7500    0.0000 C   0  0
   -2.5981    1.5000    0.0000 C   0  0
   -1.2990   -0.7500    0.0000 C   0  0
   -2.5981   -1.5000    0.0000 C   0  0
   -2.5981   -3.0000    0.0000 N   0  0
   -1.2990   -3.7500    0.0000 C   0  0
   -1.2959   -5.2508    0.0000 N   0  0
    0.0049   -5.9994    0.0000 C   0  0
    1.3014   -5.2449    0.0000 C   0  0
    2.6030   -5.9904    0.0000 C   0  0
    2.6082   -7.4904    0.0000 C   0  0
    3.9105   -8.2363    0.0000 N   0  0
    5.2082   -7.4839    0.0000 C   0  0
    6.5087   -8.2315    0.0000 C   0  0
    6.5115   -9.7315    0.0000 N   0  0
    7.8119  -10.4791    0.0000 C   0  0
    5.2139  -10.4839    0.0000 C   0  0
    3.9134   -9.7363    0.0000 C   0  0
    1.3118   -8.2449    0.0000 C   0  0
    0.0102   -7.4994    0.0000 C   0  0
   -1.2854   -8.2570    0.0000 O   0  0
   -1.2780   -9.7570    0.0000 C   0  0
    0.0000   -3.0000    0.0000 N   0  0
    0.0000   -1.5000    0.0000 C   0  0
    2.7343   -2.9815    0.0000 C   0  0
  1  2  2  0
  2  3  1  0
  3  4  2  0
  3  5  1  0
  5  6  1  0
  6  7  1  0
  7  8  1  0
  8  9  1  6
  9 10  1  0
 10 11  2  0
 10 12  1  0
 12 13  2  0
 13 14  1  0
 13 15  1  0
 15 16  2  0
 16 17  1  0
 17 18  2  0
 18 19  1  0
 19 20  1  0
 20 21  2  0
 21 22  1  0
 22 23  2  0
 23 24  1  0
 24 25  1  0
 25 26  1  0
 26 27  1  0
 27 28  1  0
 27 29  1  0
 29 30  1  0
 30 24  1  0
 23 31  1  0
 31 32  2  0
 32 20  1  0
 32 33  1  0
 33 34  1  0
 18 35  1  0
 35 36  2  0
 36 15  1  0
 36  9  1  0
  8 37  1  0
 37  5  1  0
M  END
> <Name>
CHEMBL4073062

> <pChEMBL_Value>
6.36

$$$$
CHEMBL4092788
  SciTegic08122012322D

 40 44  0  0  0  0            999 V2000
    0.4248    2.2256    0.0000 C   0  0
    1.0683    3.5805    0.0000 C   0  0
    2.5642    3.7017    0.0000 C   0  0
    3.4163    2.4672    0.0000 O   0  0
    3.2081    5.0574    0.0000 N   0  0
    4.7041    5.1786    0.0000 C   0  0
    5.5540    3.9426    0.0000 C   0  0
    7.0494    4.0606    0.0000 C   0  0
    7.8972    2.8222    0.0000 N   0  0
    9.3937    2.9363    0.0000 C   0  0
   10.2429    1.6998    0.0000 N   0  0
   11.7383    1.8169    0.0000 C   0  0
   12.3846    3.1706    0.0000 C   0  0
   11.5375    4.4025    0.0000 C   0  0
   12.0803    5.8016    0.0000 C   0  0
   13.5306    6.1846    0.0000 C   0  0
   13.6142    7.6815    0.0000 N   0  0
   12.2158    8.2241    0.0000 C   0  0
   11.9864    9.7064    0.0000 C   0  0
   10.4754   10.0436    0.0000 C   0  0
    9.4109    8.9868    0.0000 C   0  0
    9.7939    7.5365    0.0000 C   0  0
   11.2679    7.0625    0.0000 C   0  0
   13.1555   10.6462    0.0000 C   0  0
   14.5540   10.1036    0.0000 C   0  0
   14.7833    8.6213    0.0000 C   0  0
   10.0400    4.2899    0.0000 N   0  0
    7.6948    5.4147    0.0000 C   0  0
    9.1907    5.5359    0.0000 O   0  0
    9.8342    6.8909    0.0000 C   0  0
    6.8449    6.6507    0.0000 C   0  0
    5.3495    6.5326    0.0000 C   0  0
    4.5017    7.7710    0.0000 N   0  0
    3.0061    7.6556    0.0000 C   0  0
    5.1494    9.1249    0.0000 C   0  0
    4.3016   10.3633    0.0000 C   0  0
    2.8060   10.2479    0.0000 O   0  0
    4.9493   11.7172    0.0000 N   0  0
    4.1020   12.9549    0.0000 C   0  0
    6.4449   11.8326    0.0000 C   0  0
  1  2  2  0
  2  3  1  0
  3  4  2  0
  3  5  1  0
  5  6  1  0
  6  7  2  0
  7  8  1  0
  8  9  1  0
  9 10  1  0
 10 11  2  0
 11 12  1  0
 12 13  2  0
 13 14  1  0
 14 15  1  0
 15 16  2  0
 16 17  1  0
 17 18  1  0
 18 19  2  0
 19 20  1  0
 20 21  2  0
 21 22  1  0
 22 23  2  0
 23 15  1  0
 23 18  1  0
 19 24  1  0
 24 25  1  0
 25 26  1  0
 26 17  1  0
 14 27  2  0
 27 10  1  0
  8 28  2  0
 28 29  1  0
 29 30  1  0
 28 31  1  0
 31 32  2  0
 32  6  1  0
 32 33  1  0
 33 34  1  0
 33 35  1  0
 35 36  1  0
 36 37  2  0
 36 38  1  0
 38 39  1  0
 38 40  1  0
M  END
> <Name>
CHEMBL4092788

> <pChEMBL_Value>
6.30

$$$$
CHEMBL4096014
  SciTegic08122012322D

 45 50  0  0  1  0            999 V2000
    4.5246   -7.2506    0.0000 C   0  0
    3.9195   -5.8781    0.0000 C   0  0
    4.8054   -4.6666    0.0000 C   0  0
    6.2966   -4.8284    0.0000 O   0  0
    4.2010   -3.2956    0.0000 N   0  0
    4.9531   -1.9978    0.0000 C   0  0
    3.9511   -0.8815    0.0000 C   0  0
    2.5987   -1.5004    0.0000 C   0  0  2  0  0  0
    1.2990   -0.7500    0.0000 N   0  0
    0.0000   -1.5000    0.0000 C   0  0
    0.0000   -3.0000    0.0000 O   0  0
   -1.2990   -0.7500    0.0000 N   0  0
   -2.5987   -1.5004    0.0000 C   0  0
   -3.8967   -0.7484    0.0000 C   0  0
   -5.1969   -1.4963    0.0000 C   0  0
   -6.4970   -0.7465    0.0000 O   0  0
   -7.7962   -1.4963    0.0000 C   0  0
   -5.1993   -2.9963    0.0000 C   0  0
   -3.9014   -3.7484    0.0000 C   0  0
   -2.6012   -3.0004    0.0000 C   0  0
   -1.3034   -3.7525    0.0000 F   0  0
   -1.2990    0.7500    0.0000 C   0  0
    0.0000    1.5000    0.0000 C   0  0
    0.0000    3.0000    0.0000 C   0  0
    1.2990    3.7500    0.0000 N   0  0
    2.5981    3.0000    0.0000 C   0  0
    3.8994    3.7477    0.0000 N   0  0
    5.1981    2.9955    0.0000 C   0  0
    6.4997    3.7409    0.0000 C   0  0
    7.7962    2.9864    0.0000 C   0  0
    7.7910    1.4864    0.0000 C   0  0
    9.0881    0.7316    0.0000 N   0  0
   10.3910    1.4750    0.0000 C   0  0
   11.6862    0.7184    0.0000 C   0  0
   11.6787   -0.7816    0.0000 N   0  0
   12.9739   -1.5381    0.0000 C   0  0
   10.3759   -1.5250    0.0000 C   0  0
    9.0806   -0.7685    0.0000 C   0  0
    6.4894    0.7409    0.0000 C   0  0
    6.4811   -0.7599    0.0000 C   0  0
    5.1784   -1.5035    0.0000 C   0  0
    5.1929    1.4954    0.0000 C   0  0
    2.5981    1.5000    0.0000 N   0  0
    1.2990    0.7500    0.0000 C   0  0
    2.7343   -2.9815    0.0000 C   0  0
  1  2  1  0
  2  3  1  0
  3  4  2  0
  3  5  1  0
  5  6  1  0
  6  7  1  0
  7  8  1  0
  8  9  1  1
  9 10  1  0
 10 11  2  0
 10 12  1  0
 12 13  1  0
 13 14  2  0
 14 15  1  0
 15 16  1  0
 16 17  1  0
 15 18  2  0
 18 19  1  0
 19 20  2  0
 20 13  1  0
 20 21  1  0
 12 22  1  0
 22 23  1  0
 23 24  2  0
 24 25  1  0
 25 26  2  0
 26 27  1  0
 27 28  1  0
 28 29  2  0
 29 30  1  0
 30 31  2  0
 31 32  1  0
 32 33  1  0
 33 34  1  0
 34 35  1  0
 35 36  1  0
 35 37  1  0
 37 38  1  0
 38 32  1  0
 31 39  1  0
 39 40  1  0
 40 41  1  0
 39 42  2  0
 42 28  1  0
 26 43  1  0
 43 44  2  0
 44 23  1  0
 44  9  1  0
  8 45  1  0
 45  5  1  0
M  END
> <Name>
CHEMBL4096014

> <pChEMBL_Value>
6.29

$$$$
CHEMBL3633151
  SciTegic08122012322D

 39 42  0  0  0  0            999 V2000
    6.4757   -8.2656    0.0000 C   0  0
    5.1799   -7.5101    0.0000 C   0  0
    5.1854   -6.0093    0.0000 C   0  0
    6.4874   -5.2644    0.0000 O   0  0
    3.8888   -5.2533    0.0000 N   0  0
    3.8943   -3.7525    0.0000 C   0  0
    5.1945   -3.0045    0.0000 C   0  0
    5.1969   -1.5045    0.0000 C   0  0
    3.8991   -0.7525    0.0000 C   0  0
    2.5987   -1.5004    0.0000 C   0  0
    1.2990   -0.7500    0.0000 N   0  0
    0.0000   -1.5000    0.0000 C   0  0
    0.0000   -3.0000    0.0000 O   0  0
   -1.2990   -0.7500    0.0000 C   0  0
   -1.2990    0.7500    0.0000 C   0  0
   -2.5981    1.5000    0.0000 C   0  0
    0.0000    1.5000    0.0000 C   0  0
    0.0000    3.0000    0.0000 C   0  0
    1.2990    3.7500    0.0000 N   0  0
    2.5981    3.0000    0.0000 C   0  0
    3.8994    3.7477    0.0000 N   0  0
    5.1981    2.9955    0.0000 C   0  0
    5.1929    1.4954    0.0000 C   0  0
    6.4894    0.7409    0.0000 C   0  0
    7.7910    1.4865    0.0000 C   0  0
    9.0897    0.7342    0.0000 N   0  0
    9.0871   -0.7658    0.0000 C   0  0
   10.3910    1.4820    0.0000 C   0  0
   11.6897    0.7298    0.0000 C   0  0
   12.9910    1.4775    0.0000 N   0  0
   14.2890    0.7257    0.0000 C   0  0
   12.9935    2.9775    0.0000 C   0  0
    7.7962    2.9864    0.0000 C   0  0
    6.4997    3.7409    0.0000 C   0  0
    6.5081    5.2417    0.0000 O   0  0
    7.8108    5.9853    0.0000 C   0  0
    2.5981    1.5000    0.0000 N   0  0
    1.2990    0.7500    0.0000 C   0  0
    2.5965   -3.0004    0.0000 C   0  0
  1  2  2  0
  2  3  1  0
  3  4  2  0
  3  5  1  0
  5  6  1  0
  6  7  2  0
  7  8  1  0
  8  9  2  0
  9 10  1  0
 10 11  1  0
 11 12  1  0
 12 13  2  0
 12 14  1  0
 14 15  2  0
 15 16  1  0
 15 17  1  0
 17 18  2  0
 18 19  1  0
 19 20  2  0
 20 21  1  0
 21 22  1  0
 22 23  2  0
 23 24  1  0
 24 25  2  0
 25 26  1  0
 26 27  1  0
 26 28  1  0
 28 29  1  0
 29 30  1  0
 30 31  1  0
 30 32  1  0
 25 33  1  0
 33 34  2  0
 34 22  1  0
 34 35  1  0
 35 36  1  0
 20 37  1  0
 37 38  2  0
 38 17  1  0
 38 11  1  0
 10 39  2  0
 39  6  1  0
M  END
> <Name>
CHEMBL3633151

> <pChEMBL_Value>
6.28

$$$$
CHEMBL2029443
  SciTegic08122012322D

 39 43  0  0  0  0            999 V2000
    6.4757   -8.2656    0.0000 C   0  0
    5.1799   -7.5101    0.0000 C   0  0
    5.1854   -6.0093    0.0000 C   0  0
    6.4874   -5.2644    0.0000 O   0  0
    3.8888   -5.2533    0.0000 N   0  0
    3.8943   -3.7525    0.0000 C   0  0
    5.1945   -3.0045    0.0000 C   0  0
    5.1969   -1.5045    0.0000 C   0  0
    3.8991   -0.7525    0.0000 C   0  0
    2.5987   -1.5004    0.0000 C   0  0
    1.2990   -0.7500    0.0000 N   0  0
    0.0000   -1.5000    0.0000 C   0  0
    0.0000   -3.0000    0.0000 O   0  0
   -1.2990   -0.7500    0.0000 N   0  0
   -2.5981   -1.5000    0.0000 C   0  0
   -1.2990    0.7500    0.0000 C   0  0
    0.0000    1.5000    0.0000 C   0  0
    0.0000    3.0000    0.0000 C   0  0
    1.2990    3.7500    0.0000 N   0  0
    2.5981    3.0000    0.0000 C   0  0
    3.8994    3.7477    0.0000 N   0  0
    5.1981    2.9955    0.0000 C   0  0
    5.1929    1.4954    0.0000 C   0  0
    6.4894    0.7409    0.0000 C   0  0
    7.7910    1.4865    0.0000 C   0  0
    9.0881    0.7316    0.0000 N   0  0
    9.0854   -0.7685    0.0000 C   0  0
   10.3830   -1.5209    0.0000 C   0  0
   11.6835   -0.7733    0.0000 N   0  0
   12.9811   -1.5257    0.0000 C   0  0
   11.6863    0.7267    0.0000 C   0  0
   10.3886    1.4791    0.0000 C   0  0
    7.7962    2.9864    0.0000 C   0  0
    6.4997    3.7409    0.0000 C   0  0
    6.5081    5.2417    0.0000 O   0  0
    7.8108    5.9853    0.0000 C   0  0
    2.5981    1.5000    0.0000 N   0  0
    1.2990    0.7500    0.0000 C   0  0
    2.5965   -3.0004    0.0000 C   0  0
  1  2  1  0
  2  3  1  0
  3  4  2  0
  3  5  1  0
  5  6  1  0
  6  7  2  0
  7  8  1  0
  8  9  2  0
  9 10  1  0
 10 11  1  0
 11 12  1  0
 12 13  2  0
 12 14  1  0
 14 15  1  0
 14 16  1  0
 16 17  1  0
 17 18  2  0
 18 19  1  0
 19 20  2  0
 20 21  1  0
 21 22  1  0
 22 23  2  0
 23 24  1  0
 24 25  2  0
 25 26  1  0
 26 27  1  0
 27 28  1  0
 28 29  1  0
 29 30  1  0
 29 31  1  0
 31 32  1  0
 32 26  1  0
 25 33  1  0
 33 34  2  0
 34 22  1  0
 34 35  1  0
 35 36  1  0
 20 37  1  0
 37 38  2  0
 38 17  1  0
 38 11  1  0
 10 39  2  0
 39  6  1  0
M  END
> <Name>
CHEMBL2029443

> <pChEMBL_Value>
6.25

$$$$
CHEMBL4065984
  SciTegic08122012322D

 45 50  0  0  1  0            999 V2000
    4.5246   -7.2506    0.0000 C   0  0
    3.9195   -5.8781    0.0000 C   0  0
    4.8054   -4.6666    0.0000 C   0  0
    6.2966   -4.8284    0.0000 O   0  0
    4.2010   -3.2956    0.0000 N   0  0
    4.9531   -1.9978    0.0000 C   0  0
    3.9511   -0.8815    0.0000 C   0  0
    2.5987   -1.5004    0.0000 C   0  0  2  0  0  0
    1.2990   -0.7500    0.0000 N   0  0
    0.0000   -1.5000    0.0000 C   0  0
    0.0000   -3.0000    0.0000 O   0  0
   -1.2990   -0.7500    0.0000 N   0  0
   -2.5987   -1.5004    0.0000 C   0  0
   -3.8967   -0.7484    0.0000 C   0  0
   -5.1969   -1.4963    0.0000 C   0  0
   -6.4970   -0.7465    0.0000 O   0  0
   -7.7962   -1.4963    0.0000 C   0  0
   -5.1993   -2.9963    0.0000 C   0  0
   -3.9014   -3.7484    0.0000 C   0  0
   -2.6012   -3.0004    0.0000 C   0  0
   -1.3034   -3.7525    0.0000 F   0  0
   -1.2990    0.7500    0.0000 C   0  0
    0.0000    1.5000    0.0000 C   0  0
    0.0000    3.0000    0.0000 C   0  0
    1.2990    3.7500    0.0000 N   0  0
    2.5981    3.0000    0.0000 C   0  0
    3.8994    3.7477    0.0000 N   0  0
    5.1981    2.9955    0.0000 C   0  0
    6.4997    3.7409    0.0000 C   0  0
    7.7962    2.9864    0.0000 C   0  0
    7.7910    1.4864    0.0000 C   0  0
    9.0881    0.7316    0.0000 N   0  0
   10.3910    1.4750    0.0000 C   0  0
   11.6862    0.7184    0.0000 C   0  0
   11.6787   -0.7816    0.0000 N   0  0
   12.9739   -1.5381    0.0000 C   0  0
   10.3759   -1.5250    0.0000 C   0  0
    9.0806   -0.7685    0.0000 C   0  0
    6.4894    0.7409    0.0000 C   0  0
    6.4811   -0.7599    0.0000 O   0  0
    5.1784   -1.5035    0.0000 C   0  0
    5.1929    1.4954    0.0000 C   0  0
    2.5981    1.5000    0.0000 N   0  0
    1.2990    0.7500    0.0000 C   0  0
    2.7343   -2.9815    0.0000 C   0  0
  1  2  1  0
  2  3  1  0
  3  4  2  0
  3  5  1  0
  5  6  1  0
  6  7  1  0
  7  8  1  0
  8  9  1  1
  9 10  1  0
 10 11  2  0
 10 12  1  0
 12 13  1  0
 13 14  2  0
 14 15  1  0
 15 16  1  0
 16 17  1  0
 15 18  2  0
 18 19  1  0
 19 20  2  0
 20 13  1  0
 20 21  1  0
 12 22  1  0
 22 23  1  0
 23 24  2  0
 24 25  1  0
 25 26  2  0
 26 27  1  0
 27 28  1  0
 28 29  2  0
 29 30  1  0
 30 31  2  0
 31 32  1  0
 32 33  1  0
 33 34  1  0
 34 35  1  0
 35 36  1  0
 35 37  1  0
 37 38  1  0
 38 32  1  0
 31 39  1  0
 39 40  1  0
 40 41  1  0
 39 42  2  0
 42 28  1  0
 26 43  1  0
 43 44  2  0
 44 23  1  0
 44  9  1  0
  8 45  1  0
 45  5  1  0
M  END
> <Name>
CHEMBL4065984

> <pChEMBL_Value>
6.22

$$$$
CHEMBL4093535
  SciTegic08122012322D

 45 50  0  0  1  0            999 V2000
    4.5246   -7.2506    0.0000 C   0  0
    3.9195   -5.8781    0.0000 C   0  0
    4.8054   -4.6666    0.0000 C   0  0
    6.2966   -4.8284    0.0000 O   0  0
    4.2010   -3.2956    0.0000 N   0  0
    4.9531   -1.9978    0.0000 C   0  0
    3.9511   -0.8815    0.0000 C   0  0
    2.5987   -1.5004    0.0000 C   0  0  2  0  0  0
    1.2990   -0.7500    0.0000 N   0  0
    0.0000   -1.5000    0.0000 C   0  0
    0.0000   -3.0000    0.0000 O   0  0
   -1.2990   -0.7500    0.0000 N   0  0
   -2.5987   -1.5004    0.0000 C   0  0
   -3.8967   -0.7484    0.0000 C   0  0
   -5.1969   -1.4963    0.0000 C   0  0
   -6.4970   -0.7465    0.0000 O   0  0
   -7.7962   -1.4963    0.0000 C   0  0
   -5.1993   -2.9963    0.0000 C   0  0
   -3.9014   -3.7484    0.0000 C   0  0
   -2.6012   -3.0004    0.0000 C   0  0
   -1.3034   -3.7525    0.0000 F   0  0
   -1.2990    0.7500    0.0000 C   0  0
    0.0000    1.5000    0.0000 C   0  0
    0.0000    3.0000    0.0000 C   0  0
    1.2990    3.7500    0.0000 N   0  0
    2.5981    3.0000    0.0000 C   0  0
    3.8994    3.7477    0.0000 N   0  0
    5.1981    2.9955    0.0000 C   0  0
    6.4997    3.7409    0.0000 C   0  0
    7.7962    2.9864    0.0000 C   0  0
    7.7910    1.4864    0.0000 C   0  0
    9.0881    0.7316    0.0000 N   0  0
   10.3910    1.4750    0.0000 C   0  0
   11.6862    0.7184    0.0000 C   0  0
   11.6787   -0.7816    0.0000 N   0  0
   12.9739   -1.5381    0.0000 C   0  0
   10.3759   -1.5250    0.0000 C   0  0
   10.3683   -3.0250    0.0000 C   0  0
    9.0806   -0.7685    0.0000 C   0  0
    6.4894    0.7409    0.0000 C   0  0
    6.4842   -0.7590    0.0000 C   0  0
    5.1929    1.4954    0.0000 C   0  0
    2.5981    1.5000    0.0000 N   0  0
    1.2990    0.7500    0.0000 C   0  0
    2.7343   -2.9815    0.0000 C   0  0
  1  2  1  0
  2  3  1  0
  3  4  2  0
  3  5  1  0
  5  6  1  0
  6  7  1  0
  7  8  1  0
  8  9  1  1
  9 10  1  0
 10 11  2  0
 10 12  1  0
 12 13  1  0
 13 14  2  0
 14 15  1  0
 15 16  1  0
 16 17  1  0
 15 18  2  0
 18 19  1  0
 19 20  2  0
 20 13  1  0
 20 21  1  0
 12 22  1  0
 22 23  1  0
 23 24  2  0
 24 25  1  0
 25 26  2  0
 26 27  1  0
 27 28  1  0
 28 29  2  0
 29 30  1  0
 30 31  2  0
 31 32  1  0
 32 33  1  0
 33 34  1  0
 34 35  1  0
 35 36  1  0
 35 37  1  0
 37 38  1  0
 37 39  1  0
 39 32  1  0
 31 40  1  0
 40 41  1  0
 40 42  2  0
 42 28  1  0
 26 43  1  0
 43 44  2  0
 44 23  1  0
 44  9  1  0
  8 45  1  0
 45  5  1  0
M  END
> <Name>
CHEMBL4093535

> <pChEMBL_Value>
6.15

$$$$
CHEMBL2426278
  SciTegic08122012322D

 37 41  0  0  0  0            999 V2000
   -2.8827  -11.5495    0.0000 C   0  0
   -4.3226  -11.1290    0.0000 C   0  0
   -4.6795   -9.6712    0.0000 C   0  0
   -3.5958   -8.6342    0.0000 O   0  0
   -6.1202   -9.2506    0.0000 N   0  0
   -6.4771   -7.7928    0.0000 C   0  0
   -5.3916   -6.7576    0.0000 C   0  0
   -5.7452   -5.2998    0.0000 C   0  0
   -4.6570   -4.2663    0.0000 N   0  0
   -3.2175   -4.6910    0.0000 C   0  0
   -2.8628   -6.1485    0.0000 N   0  0
   -1.4233   -6.5700    0.0000 C   0  0
   -0.3384   -5.5341    0.0000 C   0  0
    1.1012   -5.9552    0.0000 Cl  0  0
   -0.6928   -4.0817    0.0000 C   0  0
    0.3114   -2.9665    0.0000 C   0  0
    1.8032   -3.1233    0.0000 C   0  0
    2.4133   -1.7530    0.0000 N   0  0
    1.2990   -0.7500    0.0000 C   0  0
    1.2990    0.7500    0.0000 C   0  0
    0.0000    1.5000    0.0000 C   0  0
   -1.2990    0.7500    0.0000 C   0  0
   -1.2990   -0.7500    0.0000 C   0  0
    0.0000   -1.5000    0.0000 C   0  0
   -2.1327   -3.6551    0.0000 N   0  0
   -7.1846   -4.8774    0.0000 C   0  0
   -7.5416   -3.4196    0.0000 O   0  0
   -8.9814   -2.9992    0.0000 C   0  0
   -8.2701   -5.9126    0.0000 C   0  0
   -7.9164   -7.3703    0.0000 C   0  0
   -9.0024   -8.4060    0.0000 N   0  0
  -10.4425   -7.9859    0.0000 C   0  0
  -11.5263   -9.0228    0.0000 C   0  0
  -11.1703  -10.4799    0.0000 N   0  0
  -12.2542  -11.5168    0.0000 C   0  0
   -9.7303  -10.9001    0.0000 C   0  0
   -8.6465   -9.8632    0.0000 C   0  0
  1  2  2  0
  2  3  1  0
  3  4  2  0
  3  5  1  0
  5  6  1  0
  6  7  2  0
  7  8  1  0
  8  9  1  0
  9 10  1  0
 10 11  2  0
 11 12  1  0
 12 13  2  0
 13 14  1  0
 13 15  1  0
 15 16  1  0
 16 17  2  0
 17 18  1  0
 18 19  1  0
 19 20  2  0
 20 21  1  0
 21 22  2  0
 22 23  1  0
 23 24  2  0
 24 16  1  0
 24 19  1  0
 15 25  2  0
 25 10  1  0
  8 26  2  0
 26 27  1  0
 27 28  1  0
 26 29  1  0
 29 30  2  0
 30  6  1  0
 30 31  1  0
 31 32  1  0
 32 33  1  0
 33 34  1  0
 34 35  1  0
 34 36  1  0
 36 37  1  0
 37 31  1  0
M  END
> <Name>
CHEMBL2426278

> <pChEMBL_Value>
6.11

$$$$
CHEMBL2426280
  SciTegic08122012322D

 34 38  0  0  0  0            999 V2000
   -8.9766   -2.9827    0.0000 C   0  0
   -7.5391   -3.4113    0.0000 O   0  0
   -6.4479   -2.3809    0.0000 C   0  0
   -6.7976   -0.9222    0.0000 C   0  0
   -5.7092    0.1100    0.0000 C   0  0
   -6.0590    1.5694    0.0000 N   0  0
   -7.4964    1.9983    0.0000 C   0  0
   -7.8438    3.4575    0.0000 C   0  0
   -6.7537    4.4879    0.0000 N   0  0
   -7.0983    5.9487    0.0000 C   0  0
   -8.5349    6.3800    0.0000 C   0  0
   -6.0067    6.9776    0.0000 O   0  0
   -5.3163    4.0591    0.0000 C   0  0
   -4.9690    2.5999    0.0000 C   0  0
   -4.2711   -0.3166    0.0000 C   0  0
   -3.9214   -1.7752    0.0000 C   0  0
   -5.0098   -2.8075    0.0000 C   0  0
   -4.6570   -4.2663    0.0000 N   0  0
   -3.2175   -4.6910    0.0000 C   0  0
   -2.8628   -6.1485    0.0000 N   0  0
   -1.4233   -6.5700    0.0000 C   0  0
   -0.3384   -5.5341    0.0000 C   0  0
    1.1012   -5.9552    0.0000 Cl  0  0
   -0.6928   -4.0817    0.0000 C   0  0
    0.3114   -2.9665    0.0000 C   0  0
    1.8032   -3.1233    0.0000 C   0  0
    2.4133   -1.7530    0.0000 N   0  0
    1.2990   -0.7500    0.0000 C   0  0
    1.2990    0.7500    0.0000 C   0  0
    0.0000    1.5000    0.0000 C   0  0
   -1.2990    0.7500    0.0000 C   0  0
   -1.2990   -0.7500    0.0000 C   0  0
    0.0000   -1.5000    0.0000 C   0  0
   -2.1327   -3.6551    0.0000 N   0  0
  1  2  1  0
  2  3  1  0
  3  4  2  0
  4  5  1  0
  5  6  1  0
  6  7  1  0
  7  8  1  0
  8  9  1  0
  9 10  1  0
 10 11  1  0
 10 12  2  0
  9 13  1  0
 13 14  1  0
 14  6  1  0
  5 15  2  0
 15 16  1  0
 16 17  2  0
 17  3  1  0
 17 18  1  0
 18 19  1  0
 19 20  2  0
 20 21  1  0
 21 22  2  0
 22 23  1  0
 22 24  1  0
 24 25  1  0
 25 26  2  0
 26 27  1  0
 27 28  1  0
 28 29  2  0
 29 30  1  0
 30 31  2  0
 31 32  1  0
 32 33  2  0
 33 25  1  0
 33 28  1  0
 24 34  2  0
 34 19  1  0
M  END
> <Name>
CHEMBL2426280

> <pChEMBL_Value>
6.10

$$$$
CHEMBL4165126
  SciTegic08122012322D

 38 42  0  0  0  0            999 V2000
    0.0311   10.4969    0.0000 C   0  0
   -1.2711    9.7524    0.0000 C   0  0
   -1.2785    8.2516    0.0000 C   0  0
    0.0171    7.4957    0.0000 O   0  0
   -2.5814    7.5068    0.0000 N   0  0
   -2.5887    6.0060    0.0000 C   0  0
   -1.2918    5.2523    0.0000 C   0  0
   -1.2961    3.7523    0.0000 C   0  0
    0.0031    3.0008    0.0000 N   0  0
    1.3039    3.7494    0.0000 C   0  0
    1.3092    5.2494    0.0000 N   0  0
    2.6108    5.9949    0.0000 C   0  0
    3.9072    5.2405    0.0000 C   0  0
    3.9020    3.7405    0.0000 C   0  0
    5.1976    2.9829    0.0000 N   0  0
    5.1903    1.4821    0.0000 C   0  0
    3.8861    0.7410    0.0000 C   0  0
    3.8758   -0.7590    0.0000 C   0  0
    5.1696   -1.5179    0.0000 C   0  0
    6.4738   -0.7769    0.0000 C   0  0
    6.4841    0.7230    0.0000 C   0  0
    7.7890    1.4644    0.0000 N   0  0
    7.9395    2.9440    0.0000 N   0  0
    9.4093    3.2434    0.0000 C   0  0
   10.1482    1.9380    0.0000 C   0  0
    9.1351    0.8319    0.0000 N   0  0
    2.6004    2.9949    0.0000 N   0  0
   -2.5973    3.0060    0.0000 C   0  0
   -2.6046    1.5052    0.0000 O   0  0
   -3.9068    0.7607    0.0000 C   0  0
   -3.8942    3.7597    0.0000 C   0  0
   -3.8899    5.2597    0.0000 C   0  0
   -5.1875    6.0137    0.0000 N   0  0
   -6.4899    5.2695    0.0000 C   0  0
   -7.7856    6.0253    0.0000 C   0  0
   -7.7790    7.5253    0.0000 O   0  0
   -6.4766    8.2695    0.0000 C   0  0
   -5.1809    7.5138    0.0000 C   0  0
  1  2  2  0
  2  3  1  0
  3  4  2  0
  3  5  1  0
  5  6  1  0
  6  7  2  0
  7  8  1  0
  8  9  1  0
  9 10  1  0
 10 11  2  0
 11 12  1  0
 12 13  2  0
 13 14  1  0
 14 15  1  0
 15 16  1  0
 16 17  2  0
 17 18  1  0
 18 19  2  0
 19 20  1  0
 20 21  2  0
 21 16  1  0
 21 22  1  0
 22 23  1  0
 23 24  2  0
 24 25  1  0
 25 26  2  0
 26 22  1  0
 14 27  2  0
 27 10  1  0
  8 28  2  0
 28 29  1  0
 29 30  1  0
 28 31  1  0
 31 32  2  0
 32  6  1  0
 32 33  1  0
 33 34  1  0
 34 35  1  0
 35 36  1  0
 36 37  1  0
 37 38  1  0
 38 33  1  0
M  END
> <Name>
CHEMBL4165126

> <pChEMBL_Value>
6.08

$$$$
CHEMBL3753874
  SciTegic08122012322D

 41 45  0  0  0  0            999 V2000
    6.4757   -8.2656    0.0000 C   0  0
    5.1799   -7.5101    0.0000 C   0  0
    5.1854   -6.0093    0.0000 C   0  0
    6.4874   -5.2644    0.0000 O   0  0
    3.8888   -5.2533    0.0000 N   0  0
    3.8943   -3.7525    0.0000 C   0  0
    5.1945   -3.0045    0.0000 C   0  0
    5.1969   -1.5045    0.0000 C   0  0
    3.8991   -0.7525    0.0000 C   0  0
    2.5987   -1.5004    0.0000 C   0  0
    1.2990   -0.7500    0.0000 N   0  0
    0.0000   -1.5000    0.0000 C   0  0
    0.0000   -3.0000    0.0000 O   0  0
   -1.2990   -0.7500    0.0000 C   0  0
   -1.2990    0.7500    0.0000 C   0  0
   -2.6003    1.4977    0.0000 C   0  0
   -3.8990    0.7455    0.0000 C   0  0
   -5.1996    1.4928    0.0000 C   0  0
    0.0000    1.5000    0.0000 C   0  0
    0.0000    3.0000    0.0000 C   0  0
    1.2990    3.7500    0.0000 N   0  0
    2.5981    3.0000    0.0000 C   0  0
    3.8994    3.7477    0.0000 N   0  0
    5.1981    2.9955    0.0000 C   0  0
    5.1929    1.4954    0.0000 C   0  0
    6.4894    0.7409    0.0000 C   0  0
    7.7910    1.4865    0.0000 C   0  0
    9.0881    0.7316    0.0000 N   0  0
    9.0854   -0.7685    0.0000 C   0  0
   10.3830   -1.5209    0.0000 C   0  0
   11.6835   -0.7733    0.0000 N   0  0
   12.9811   -1.5257    0.0000 C   0  0
   11.6863    0.7267    0.0000 C   0  0
   10.3886    1.4791    0.0000 C   0  0
    7.7962    2.9864    0.0000 C   0  0
    6.4997    3.7409    0.0000 C   0  0
    6.5081    5.2417    0.0000 O   0  0
    7.8108    5.9853    0.0000 C   0  0
    2.5981    1.5000    0.0000 N   0  0
    1.2990    0.7500    0.0000 C   0  0
    2.5965   -3.0004    0.0000 C   0  0
  1  2  2  0
  2  3  1  0
  3  4  2  0
  3  5  1  0
  5  6  1  0
  6  7  2  0
  7  8  1  0
  8  9  2  0
  9 10  1  0
 10 11  1  0
 11 12  1  0
 12 13  2  0
 12 14  1  0
 14 15  2  0
 15 16  1  0
 16 17  1  0
 17 18  1  0
 15 19  1  0
 19 20  2  0
 20 21  1  0
 21 22  2  0
 22 23  1  0
 23 24  1  0
 24 25  2  0
 25 26  1  0
 26 27  2  0
 27 28  1  0
 28 29  1  0
 29 30  1  0
 30 31  1  0
 31 32  1  0
 31 33  1  0
 33 34  1  0
 34 28  1  0
 27 35  1  0
 35 36  2  0
 36 24  1  0
 36 37  1  0
 37 38  1  0
 22 39  1  0
 39 40  2  0
 40 19  1  0
 40 11  1  0
 10 41  2  0
 41  6  1  0
M  END
> <Name>
CHEMBL3753874

> <pChEMBL_Value>
6.01

$$$$
CHEMBL3904450
  SciTegic08122012322D

 51 57  0  0  0  0            999 V2000
   -8.9766   -2.9827    0.0000 C   0  0
   -7.5391   -3.4113    0.0000 O   0  0
   -6.4479   -2.3809    0.0000 C   0  0
   -6.7976   -0.9222    0.0000 C   0  0
   -5.7092    0.1100    0.0000 C   0  0
   -6.0590    1.5694    0.0000 N   0  0
   -7.4964    1.9983    0.0000 C   0  0
   -7.8438    3.4575    0.0000 C   0  0
   -6.7537    4.4879    0.0000 N   0  0
   -7.1013    5.9480    0.0000 S   0  0
   -6.0109    6.9780    0.0000 C   0  0
   -8.5384    6.3777    0.0000 O   0  0
   -7.4479    7.4074    0.0000 O   0  0
   -5.3163    4.0591    0.0000 C   0  0
   -4.9690    2.5999    0.0000 C   0  0
   -4.2711   -0.3166    0.0000 C   0  0
   -3.9214   -1.7752    0.0000 C   0  0
   -5.0098   -2.8075    0.0000 C   0  0
   -4.6570   -4.2663    0.0000 N   0  0
   -3.2175   -4.6910    0.0000 C   0  0
   -2.8628   -6.1485    0.0000 N   0  0
   -1.4233   -6.5700    0.0000 C   0  0
   -0.3384   -5.5341    0.0000 C   0  0
   -0.6928   -4.0817    0.0000 C   0  0
    0.3114   -2.9665    0.0000 C   0  0
    1.8032   -3.1233    0.0000 C   0  0
    2.5536   -4.4230    0.0000 C   0  0
    1.9048   -5.7699    0.0000 C   0  0
    2.7505   -7.0088    0.0000 C   0  0
    4.2462   -6.8959    0.0000 C   0  0
    4.8963   -5.5441    0.0000 C   0  0
    6.3927   -5.4281    0.0000 C   0  0
    7.2405   -6.6656    0.0000 O   0  0
    7.0412   -4.0747    0.0000 N   0  0
    8.5376   -3.9587    0.0000 C   0  0
    9.1878   -2.6069    0.0000 C   0  0
    8.3421   -1.3679    0.0000 F   0  0
   10.6835   -2.4940    0.0000 C   0  0
   11.5292   -3.7329    0.0000 C   0  0
   10.8791   -5.0847    0.0000 C   0  0
    9.3833   -5.1976    0.0000 C   0  0
    8.7333   -6.5494    0.0000 F   0  0
    4.0507   -4.3052    0.0000 C   0  0
    2.4133   -1.7530    0.0000 N   0  0
    1.2990   -0.7500    0.0000 C   0  0
    1.2990    0.7500    0.0000 C   0  0
    0.0000    1.5000    0.0000 C   0  0
   -1.2990    0.7500    0.0000 C   0  0
   -1.2990   -0.7500    0.0000 C   0  0
    0.0000   -1.5000    0.0000 N   0  0
   -2.1327   -3.6551    0.0000 N   0  0
  1  2  1  0
  2  3  1  0
  3  4  2  0
  4  5  1  0
  5  6  1  0
  6  7  1  0
  7  8  1  0
  8  9  1  0
  9 10  1  0
 10 11  1  0
 10 12  2  0
 10 13  2  0
  9 14  1  0
 14 15  1  0
 15  6  1  0
  5 16  2  0
 16 17  1  0
 17 18  2  0
 18  3  1  0
 18 19  1  0
 19 20  1  0
 20 21  2  0
 21 22  1  0
 22 23  2  0
 23 24  1  0
 24 25  1  0
 25 26  2  0
 26 27  1  0
 27 28  2  0
 28 29  1  0
 29 30  2  0
 30 31  1  0
 31 32  1  0
 32 33  2  0
 32 34  1  0
 34 35  1  0
 35 36  2  0
 36 37  1  0
 36 38  1  0
 38 39  2  0
 39 40  1  0
 40 41  2  0
 41 35  1  0
 41 42  1  0
 31 43  2  0
 43 27  1  0
 26 44  1  0
 44 45  2  0
 45 46  1  0
 46 47  2  0
 47 48  1  0
 48 49  2  0
 49 50  1  0
 50 25  1  0
 50 45  1  0
 24 51  2  0
 51 20  1  0
M  END
> <Name>
CHEMBL3904450

> <pChEMBL_Value>
6.00

$$$$
CHEMBL3937303
  SciTegic08122012322D

 53 59  0  0  0  0            999 V2000
   -6.3505    8.4381    0.0000 C   0  0
   -6.0061    6.9781    0.0000 C   0  0
   -7.0983    5.9487    0.0000 C   0  0
   -6.7537    4.4879    0.0000 N   0  0
   -7.8438    3.4575    0.0000 C   0  0
   -7.4964    1.9983    0.0000 C   0  0
   -6.0590    1.5694    0.0000 C   0  0
   -5.7092    0.1100    0.0000 C   0  0
   -6.7976   -0.9222    0.0000 C   0  0
   -6.4479   -2.3809    0.0000 C   0  0
   -7.5391   -3.4113    0.0000 O   0  0
   -8.9766   -2.9827    0.0000 C   0  0
   -5.0098   -2.8075    0.0000 C   0  0
   -4.6570   -4.2663    0.0000 N   0  0
   -3.2175   -4.6910    0.0000 C   0  0
   -2.8628   -6.1485    0.0000 N   0  0
   -1.4233   -6.5700    0.0000 C   0  0
   -0.3384   -5.5341    0.0000 C   0  0
   -0.6928   -4.0817    0.0000 C   0  0
    0.3114   -2.9665    0.0000 C   0  0
    1.8032   -3.1233    0.0000 C   0  0
    2.5536   -4.4230    0.0000 C   0  0
    1.9048   -5.7699    0.0000 C   0  0
    2.7505   -7.0088    0.0000 C   0  0
    4.2462   -6.8959    0.0000 C   0  0
    5.0898   -8.1373    0.0000 O   0  0
    4.4377   -9.4881    0.0000 C   0  0
    4.8963   -5.5441    0.0000 C   0  0
    6.3927   -5.4281    0.0000 C   0  0
    7.2405   -6.6656    0.0000 O   0  0
    7.0412   -4.0747    0.0000 N   0  0
    8.5376   -3.9587    0.0000 C   0  0
    9.1878   -2.6069    0.0000 C   0  0
    8.3421   -1.3679    0.0000 F   0  0
   10.6835   -2.4940    0.0000 C   0  0
   11.5292   -3.7329    0.0000 C   0  0
   10.8791   -5.0847    0.0000 C   0  0
    9.3833   -5.1976    0.0000 C   0  0
    8.7333   -6.5494    0.0000 F   0  0
    4.0507   -4.3052    0.0000 C   0  0
    2.4133   -1.7530    0.0000 N   0  0
    1.2990   -0.7500    0.0000 C   0  0
    1.2990    0.7500    0.0000 C   0  0
    0.0000    1.5000    0.0000 C   0  0
   -1.2990    0.7500    0.0000 C   0  0
   -1.2990   -0.7500    0.0000 C   0  0
    0.0000   -1.5000    0.0000 N   0  0
   -2.1327   -3.6551    0.0000 N   0  0
   -3.9214   -1.7752    0.0000 C   0  0
   -4.2711   -0.3166    0.0000 C   0  0
   -3.1827    0.7156    0.0000 C   0  0
   -4.9690    2.5999    0.0000 C   0  0
   -5.3163    4.0591    0.0000 C   0  0
  1  2  1  0
  2  3  1  0
  3  4  1  0
  4  5  1  0
  5  6  1  0
  6  7  1  0
  7  8  1  0
  8  9  2  0
  9 10  1  0
 10 11  1  0
 11 12  1  0
 10 13  2  0
 13 14  1  0
 14 15  1  0
 15 16  2  0
 16 17  1  0
 17 18  2  0
 18 19  1  0
 19 20  1  0
 20 21  2  0
 21 22  1  0
 22 23  2  0
 23 24  1  0
 24 25  2  0
 25 26  1  0
 26 27  1  0
 25 28  1  0
 28 29  1  0
 29 30  2  0
 29 31  1  0
 31 32  1  0
 32 33  2  0
 33 34  1  0
 33 35  1  0
 35 36  2  0
 36 37  1  0
 37 38  2  0
 38 32  1  0
 38 39  1  0
 28 40  2  0
 40 22  1  0
 21 41  1  0
 41 42  2  0
 42 43  1  0
 43 44  2  0
 44 45  1  0
 45 46  2  0
 46 47  1  0
 47 20  1  0
 47 42  1  0
 19 48  2  0
 48 15  1  0
 13 49  1  0
 49 50  2  0
 50  8  1  0
 50 51  1  0
  7 52  1  0
 52 53  1  0
 53  4  1  0
M  END
> <Name>
CHEMBL3937303

> <pChEMBL_Value>
6.00

$$$$
CHEMBL3937417
  SciTegic08122012322D

 53 59  0  0  0  0            999 V2000
  -10.0679   -4.0124    0.0000 C   0  0
   -8.9774   -2.9825    0.0000 C   0  0
   -7.5391   -3.4113    0.0000 O   0  0
   -6.4479   -2.3809    0.0000 C   0  0
   -6.7976   -0.9222    0.0000 C   0  0
   -5.7092    0.1100    0.0000 C   0  0
   -6.0590    1.5694    0.0000 N   0  0
   -7.4964    1.9983    0.0000 C   0  0
   -7.8438    3.4575    0.0000 C   0  0
   -6.7537    4.4879    0.0000 N   0  0
   -7.0983    5.9487    0.0000 C   0  0
   -6.0067    6.9776    0.0000 C   0  0
   -8.5349    6.3800    0.0000 C   0  0
   -5.3163    4.0591    0.0000 C   0  0
   -4.9690    2.5999    0.0000 C   0  0
   -4.2711   -0.3166    0.0000 C   0  0
   -3.9214   -1.7752    0.0000 C   0  0
   -5.0098   -2.8075    0.0000 C   0  0
   -4.6570   -4.2663    0.0000 N   0  0
   -3.2175   -4.6910    0.0000 C   0  0
   -2.8628   -6.1485    0.0000 N   0  0
   -1.4233   -6.5700    0.0000 C   0  0
   -0.3384   -5.5341    0.0000 C   0  0
   -0.6928   -4.0817    0.0000 C   0  0
    0.3114   -2.9665    0.0000 C   0  0
    1.8032   -3.1233    0.0000 C   0  0
    2.5536   -4.4230    0.0000 C   0  0
    1.9048   -5.7699    0.0000 C   0  0
    2.7505   -7.0088    0.0000 C   0  0
    4.2462   -6.8959    0.0000 C   0  0
    5.0898   -8.1373    0.0000 O   0  0
    4.4377   -9.4881    0.0000 C   0  0
    4.8963   -5.5441    0.0000 C   0  0
    6.3927   -5.4281    0.0000 C   0  0
    7.2405   -6.6656    0.0000 O   0  0
    7.0412   -4.0747    0.0000 N   0  0
    8.5376   -3.9587    0.0000 C   0  0
    9.1878   -2.6069    0.0000 C   0  0
    8.3421   -1.3679    0.0000 F   0  0
   10.6835   -2.4940    0.0000 C   0  0
   11.5292   -3.7329    0.0000 C   0  0
   10.8791   -5.0847    0.0000 C   0  0
    9.3833   -5.1976    0.0000 C   0  0
    8.7333   -6.5494    0.0000 F   0  0
    4.0507   -4.3052    0.0000 C   0  0
    2.4133   -1.7530    0.0000 N   0  0
    1.2990   -0.7500    0.0000 C   0  0
    1.2990    0.7500    0.0000 C   0  0
    0.0000    1.5000    0.0000 C   0  0
   -1.2990    0.7500    0.0000 C   0  0
   -1.2990   -0.7500    0.0000 C   0  0
    0.0000   -1.5000    0.0000 N   0  0
   -2.1327   -3.6551    0.0000 N   0  0
  1  2  1  0
  2  3  1  0
  3  4  1  0
  4  5  2  0
  5  6  1  0
  6  7  1  0
  7  8  1  0
  8  9  1  0
  9 10  1  0
 10 11  1  0
 11 12  1  0
 11 13  1  0
 10 14  1  0
 14 15  1  0
 15  7  1  0
  6 16  2  0
 16 17  1  0
 17 18  2  0
 18  4  1  0
 18 19  1  0
 19 20  1  0
 20 21  2  0
 21 22  1  0
 22 23  2  0
 23 24  1  0
 24 25  1  0
 25 26  2  0
 26 27  1  0
 27 28  2  0
 28 29  1  0
 29 30  2  0
 30 31  1  0
 31 32  1  0
 30 33  1  0
 33 34  1  0
 34 35  2  0
 34 36  1  0
 36 37  1  0
 37 38  2  0
 38 39  1  0
 38 40  1  0
 40 41  2  0
 41 42  1  0
 42 43  2  0
 43 37  1  0
 43 44  1  0
 33 45  2  0
 45 27  1  0
 26 46  1  0
 46 47  2  0
 47 48  1  0
 48 49  2  0
 49 50  1  0
 50 51  2  0
 51 52  1  0
 52 25  1  0
 52 47  1  0
 24 53  2  0
 53 20  1  0
M  END
> <Name>
CHEMBL3937417

> <pChEMBL_Value>
6.00

$$$$
CHEMBL3950296
  SciTegic08122012322D

 58 65  0  0  0  0            999 V2000
   -8.9766   -2.9827    0.0000 C   0  0
   -7.5391   -3.4113    0.0000 O   0  0
   -6.4479   -2.3809    0.0000 C   0  0
   -6.7976   -0.9222    0.0000 C   0  0
   -5.7092    0.1100    0.0000 C   0  0
   -6.0590    1.5694    0.0000 N   0  0
   -7.4964    1.9983    0.0000 C   0  0
   -7.8438    3.4575    0.0000 C   0  0
   -6.7537    4.4879    0.0000 C   0  0
   -7.1012    5.9479    0.0000 N   0  0
   -8.5380    6.3791    0.0000 C   0  0
   -8.8830    7.8389    0.0000 C   0  0
   -7.7913    8.8676    0.0000 N   0  0
   -8.1335   10.3289    0.0000 C   0  0
   -7.0398   11.3566    0.0000 C   0  0
   -7.3818   12.8171    0.0000 F   0  0
   -6.3546    8.4365    0.0000 C   0  0
   -6.0096    6.9767    0.0000 C   0  0
   -5.3163    4.0591    0.0000 C   0  0
   -4.9690    2.5999    0.0000 C   0  0
   -4.2711   -0.3166    0.0000 C   0  0
   -3.9214   -1.7752    0.0000 C   0  0
   -5.0098   -2.8075    0.0000 C   0  0
   -4.6570   -4.2663    0.0000 N   0  0
   -3.2175   -4.6910    0.0000 C   0  0
   -2.8628   -6.1485    0.0000 N   0  0
   -1.4233   -6.5700    0.0000 C   0  0
   -0.3384   -5.5341    0.0000 C   0  0
   -0.6928   -4.0817    0.0000 C   0  0
    0.3114   -2.9665    0.0000 C   0  0
    1.8032   -3.1233    0.0000 C   0  0
    2.5536   -4.4230    0.0000 C   0  0
    1.9048   -5.7699    0.0000 C   0  0
    2.7505   -7.0088    0.0000 C   0  0
    4.2462   -6.8959    0.0000 C   0  0
    5.0898   -8.1373    0.0000 O   0  0
    4.4377   -9.4881    0.0000 C   0  0
    4.8963   -5.5441    0.0000 C   0  0
    6.3927   -5.4281    0.0000 C   0  0
    7.2405   -6.6656    0.0000 O   0  0
    7.0412   -4.0747    0.0000 N   0  0
    8.5376   -3.9587    0.0000 C   0  0
    9.1878   -2.6069    0.0000 C   0  0
    8.3421   -1.3679    0.0000 F   0  0
   10.6835   -2.4940    0.0000 C   0  0
   11.5292   -3.7329    0.0000 C   0  0
   10.8791   -5.0847    0.0000 C   0  0
    9.3833   -5.1976    0.0000 C   0  0
    8.7333   -6.5494    0.0000 F   0  0
    4.0507   -4.3052    0.0000 C   0  0
    2.4133   -1.7530    0.0000 N   0  0
    1.2990   -0.7500    0.0000 C   0  0
    1.2990    0.7500    0.0000 C   0  0
    0.0000    1.5000    0.0000 C   0  0
   -1.2990    0.7500    0.0000 C   0  0
   -1.2990   -0.7500    0.0000 C   0  0
    0.0000   -1.5000    0.0000 N   0  0
   -2.1327   -3.6551    0.0000 N   0  0
  1  2  1  0
  2  3  1  0
  3  4  2  0
  4  5  1  0
  5  6  1  0
  6  7  1  0
  7  8  1  0
  8  9  1  0
  9 10  1  0
 10 11  1  0
 11 12  1  0
 12 13  1  0
 13 14  1  0
 14 15  1  0
 15 16  1  0
 13 17  1  0
 17 18  1  0
 18 10  1  0
  9 19  1  0
 19 20  1  0
 20  6  1  0
  5 21  2  0
 21 22  1  0
 22 23  2  0
 23  3  1  0
 23 24  1  0
 24 25  1  0
 25 26  2  0
 26 27  1  0
 27 28  2  0
 28 29  1  0
 29 30  1  0
 30 31  2  0
 31 32  1  0
 32 33  2  0
 33 34  1  0
 34 35  2  0
 35 36  1  0
 36 37  1  0
 35 38  1  0
 38 39  1  0
 39 40  2  0
 39 41  1  0
 41 42  1  0
 42 43  2  0
 43 44  1  0
 43 45  1  0
 45 46  2  0
 46 47  1  0
 47 48  2  0
 48 42  1  0
 48 49  1  0
 38 50  2  0
 50 32  1  0
 31 51  1  0
 51 52  2  0
 52 53  1  0
 53 54  2  0
 54 55  1  0
 55 56  2  0
 56 57  1  0
 57 30  1  0
 57 52  1  0
 29 58  2  0
 58 25  1  0
M  END
> <Name>
CHEMBL3950296

> <pChEMBL_Value>
6.00

$$$$
CHEMBL3906473
  SciTegic08122012322D

 48 54  0  0  0  0            999 V2000
   -8.9766   -2.9827    0.0000 C   0  0
   -7.5391   -3.4113    0.0000 O   0  0
   -6.4479   -2.3809    0.0000 C   0  0
   -6.7976   -0.9222    0.0000 C   0  0
   -5.7092    0.1100    0.0000 C   0  0
   -6.0590    1.5694    0.0000 N   0  0
   -7.4964    1.9983    0.0000 C   0  0
   -7.8438    3.4575    0.0000 C   0  0
   -6.7537    4.4879    0.0000 C   0  0
   -7.1011    5.9472    0.0000 O   0  0
   -5.3163    4.0591    0.0000 C   0  0
   -4.9690    2.5999    0.0000 C   0  0
   -4.2711   -0.3166    0.0000 C   0  0
   -3.9214   -1.7752    0.0000 C   0  0
   -5.0098   -2.8075    0.0000 C   0  0
   -4.6570   -4.2663    0.0000 N   0  0
   -3.2175   -4.6910    0.0000 C   0  0
   -2.8628   -6.1485    0.0000 N   0  0
   -1.4233   -6.5700    0.0000 C   0  0
   -0.3384   -5.5341    0.0000 C   0  0
   -0.6928   -4.0817    0.0000 C   0  0
    0.3114   -2.9665    0.0000 C   0  0
    1.8032   -3.1233    0.0000 C   0  0
    2.5536   -4.4230    0.0000 C   0  0
    1.9048   -5.7699    0.0000 C   0  0
    2.7505   -7.0088    0.0000 C   0  0
    4.2462   -6.8959    0.0000 C   0  0
    4.8963   -5.5441    0.0000 C   0  0
    6.3927   -5.4281    0.0000 C   0  0
    7.2405   -6.6656    0.0000 O   0  0
    7.0412   -4.0747    0.0000 N   0  0
    8.5376   -3.9587    0.0000 C   0  0
    9.1878   -2.6069    0.0000 C   0  0
    8.3421   -1.3679    0.0000 F   0  0
   10.6835   -2.4940    0.0000 C   0  0
   11.5292   -3.7329    0.0000 C   0  0
   10.8791   -5.0847    0.0000 C   0  0
    9.3833   -5.1976    0.0000 C   0  0
    8.7333   -6.5494    0.0000 F   0  0
    4.0507   -4.3052    0.0000 C   0  0
    2.4133   -1.7530    0.0000 N   0  0
    1.2990   -0.7500    0.0000 C   0  0
    1.2990    0.7500    0.0000 C   0  0
    0.0000    1.5000    0.0000 C   0  0
   -1.2990    0.7500    0.0000 C   0  0
   -1.2990   -0.7500    0.0000 C   0  0
    0.0000   -1.5000    0.0000 N   0  0
   -2.1327   -3.6551    0.0000 N   0  0
  1  2  1  0
  2  3  1  0
  3  4  2  0
  4  5  1  0
  5  6  1  0
  6  7  1  0
  7  8  1  0
  8  9  1  0
  9 10  1  0
  9 11  1  0
 11 12  1  0
 12  6  1  0
  5 13  2  0
 13 14  1  0
 14 15  2  0
 15  3  1  0
 15 16  1  0
 16 17  1  0
 17 18  2  0
 18 19  1  0
 19 20  2  0
 20 21  1  0
 21 22  1  0
 22 23  2  0
 23 24  1  0
 24 25  2  0
 25 26  1  0
 26 27  2  0
 27 28  1  0
 28 29  1  0
 29 30  2  0
 29 31  1  0
 31 32  1  0
 32 33  2  0
 33 34  1  0
 33 35  1  0
 35 36  2  0
 36 37  1  0
 37 38  2  0
 38 32  1  0
 38 39  1  0
 28 40  2  0
 40 24  1  0
 23 41  1  0
 41 42  2  0
 42 43  1  0
 43 44  2  0
 44 45  1  0
 45 46  2  0
 46 47  1  0
 47 22  1  0
 47 42  1  0
 21 48  2  0
 48 17  1  0
M  END
> <Name>
CHEMBL3906473

> <pChEMBL_Value>
6.00

$$$$
CHEMBL3915202
  SciTegic08122012322D

 52 58  0  0  0  0            999 V2000
   -8.9766   -2.9827    0.0000 C   0  0
   -7.5391   -3.4113    0.0000 O   0  0
   -6.4479   -2.3809    0.0000 C   0  0
   -6.7976   -0.9222    0.0000 C   0  0
   -5.7092    0.1100    0.0000 C   0  0
   -6.0590    1.5694    0.0000 N   0  0
   -7.4964    1.9983    0.0000 C   0  0
   -7.8438    3.4575    0.0000 C   0  0
   -6.7537    4.4879    0.0000 N   0  0
   -7.0983    5.9487    0.0000 C   0  0
   -6.0067    6.9776    0.0000 C   0  0
   -8.5349    6.3800    0.0000 C   0  0
   -5.3163    4.0591    0.0000 C   0  0
   -4.9690    2.5999    0.0000 C   0  0
   -4.2711   -0.3166    0.0000 C   0  0
   -3.9214   -1.7752    0.0000 C   0  0
   -5.0098   -2.8075    0.0000 C   0  0
   -4.6570   -4.2663    0.0000 N   0  0
   -3.2175   -4.6910    0.0000 C   0  0
   -2.8628   -6.1485    0.0000 N   0  0
   -1.4233   -6.5700    0.0000 C   0  0
   -0.3384   -5.5341    0.0000 C   0  0
   -0.6928   -4.0817    0.0000 C   0  0
    0.3114   -2.9665    0.0000 C   0  0
    1.8032   -3.1233    0.0000 C   0  0
    2.5536   -4.4230    0.0000 C   0  0
    1.9048   -5.7699    0.0000 C   0  0
    2.7505   -7.0088    0.0000 C   0  0
    4.2462   -6.8959    0.0000 C   0  0
    5.0898   -8.1373    0.0000 O   0  0
    4.4377   -9.4881    0.0000 C   0  0
    4.8963   -5.5441    0.0000 C   0  0
    6.3927   -5.4281    0.0000 C   0  0
    7.2405   -6.6656    0.0000 O   0  0
    7.0412   -4.0747    0.0000 N   0  0
    8.5376   -3.9587    0.0000 C   0  0
    9.1878   -2.6069    0.0000 C   0  0
    8.3421   -1.3679    0.0000 F   0  0
   10.6835   -2.4940    0.0000 C   0  0
   11.5292   -3.7329    0.0000 C   0  0
   10.8791   -5.0847    0.0000 C   0  0
    9.3833   -5.1976    0.0000 C   0  0
    8.7333   -6.5494    0.0000 F   0  0
    4.0507   -4.3052    0.0000 C   0  0
    2.4133   -1.7530    0.0000 N   0  0
    1.2990   -0.7500    0.0000 C   0  0
    1.2990    0.7500    0.0000 C   0  0
    0.0000    1.5000    0.0000 C   0  0
   -1.2990    0.7500    0.0000 C   0  0
   -1.2990   -0.7500    0.0000 C   0  0
    0.0000   -1.5000    0.0000 N   0  0
   -2.1327   -3.6551    0.0000 N   0  0
  1  2  1  0
  2  3  1  0
  3  4  2  0
  4  5  1  0
  5  6  1  0
  6  7  1  0
  7  8  1  0
  8  9  1  0
  9 10  1  0
 10 11  1  0
 10 12  1  0
  9 13  1  0
 13 14  1  0
 14  6  1  0
  5 15  2  0
 15 16  1  0
 16 17  2  0
 17  3  1  0
 17 18  1  0
 18 19  1  0
 19 20  2  0
 20 21  1  0
 21 22  2  0
 22 23  1  0
 23 24  1  0
 24 25  2  0
 25 26  1  0
 26 27  2  0
 27 28  1  0
 28 29  2  0
 29 30  1  0
 30 31  1  0
 29 32  1  0
 32 33  1  0
 33 34  2  0
 33 35  1  0
 35 36  1  0
 36 37  2  0
 37 38  1  0
 37 39  1  0
 39 40  2  0
 40 41  1  0
 41 42  2  0
 42 36  1  0
 42 43  1  0
 32 44  2  0
 44 26  1  0
 25 45  1  0
 45 46  2  0
 46 47  1  0
 47 48  2  0
 48 49  1  0
 49 50  2  0
 50 51  1  0
 51 24  1  0
 51 46  1  0
 23 52  2  0
 52 19  1  0
M  END
> <Name>
CHEMBL3915202

> <pChEMBL_Value>
6.00

$$$$
CHEMBL3940401
  SciTegic08122012322D

 57 64  0  0  0  0            999 V2000
    2.5951   -3.0031    0.0000 C   0  0
    2.5973   -1.5031    0.0000 O   0  0
    1.2990   -0.7500    0.0000 C   0  0
    1.2990    0.7500    0.0000 C   0  0
    0.0000    1.5000    0.0000 C   0  0
   -1.2990    0.7500    0.0000 N   0  0
   -2.7248    1.2135    0.0000 C   0  0
   -3.1884    2.6408    0.0000 C   0  0
   -4.6234    3.0602    0.0000 C   0  0
   -4.9781    4.5177    0.0000 C   0  0
   -3.8932    5.5535    0.0000 N   0  0
   -2.4537    5.1319    0.0000 C   0  0
   -1.3661    6.1662    0.0000 N   0  0
    0.0736    5.7423    0.0000 C   0  0
    0.4233    4.2836    0.0000 C   0  0
    1.8614    3.8570    0.0000 C   0  0
    2.9499    4.8891    0.0000 C   0  0
    4.3887    4.4624    0.0000 N   0  0
    4.7407    3.0042    0.0000 C   0  0
    6.1794    2.5799    0.0000 C   0  0
    7.2663    3.6138    0.0000 C   0  0
    8.7057    3.1893    0.0000 N   0  0
    9.0601    1.7317    0.0000 C   0  0
   10.4995    1.3097    0.0000 C   0  0
   11.5847    2.3453    0.0000 C   0  0
   11.2304    3.8028    0.0000 C   0  0
    9.7910    4.2248    0.0000 C   0  0
    6.9143    5.0719    0.0000 C   0  0
    5.4756    5.4962    0.0000 C   0  0
    2.6002    6.3478    0.0000 C   0  0
    1.1622    6.7744    0.0000 C   0  0
    0.8154    8.2346    0.0000 O   0  0
    1.9054    9.2651    0.0000 C   0  0
   -2.0990    3.6745    0.0000 N   0  0
   -3.6065    0.0000    0.0000 C   0  0
   -5.1072    0.0000    0.0000 C   0  0
   -5.9493    1.2353    0.0000 C   0  0
   -7.4450    1.1224    0.0000 C   0  0
   -8.0952   -0.2294    0.0000 C   0  0
   -9.5920   -0.3392    0.0000 O   0  0
  -10.4358    0.9009    0.0000 C   0  0
   -7.2495   -1.4683    0.0000 C   0  0
   -7.8972   -2.8222    0.0000 C   0  0
   -9.3928   -2.9377    0.0000 O   0  0
   -7.0494   -4.0606    0.0000 N   0  0
   -7.6971   -5.4144    0.0000 C   0  0
   -6.8515   -6.6534    0.0000 C   0  0
   -5.3557   -6.5406    0.0000 F   0  0
   -7.5016   -8.0052    0.0000 C   0  0
   -8.9973   -8.1181    0.0000 C   0  0
   -9.8430   -6.8792    0.0000 C   0  0
   -9.1929   -5.5274    0.0000 C   0  0
  -10.0386   -4.2886    0.0000 F   0  0
   -5.7538   -1.3554    0.0000 C   0  0
   -2.7248   -1.2135    0.0000 N   0  0
   -1.2990   -0.7500    0.0000 C   0  0
    0.0000   -1.5000    0.0000 C   0  0
  1  2  1  0
  2  3  1  0
  3  4  1  0
  4  5  2  0
  5  6  1  0
  6  7  1  0
  7  8  1  0
  8  9  2  0
  9 10  1  0
 10 11  2  0
 11 12  1  0
 12 13  1  0
 13 14  1  0
 14 15  2  0
 15 16  1  0
 16 17  2  0
 17 18  1  0
 18 19  1  0
 19 20  1  0
 20 21  1  0
 21 22  1  0
 22 23  1  0
 23 24  1  0
 24 25  1  0
 25 26  1  0
 26 27  1  0
 27 22  1  0
 21 28  1  0
 28 29  1  0
 29 18  1  0
 17 30  1  0
 30 31  2  0
 31 14  1  0
 31 32  1  0
 32 33  1  0
 12 34  2  0
 34  8  1  0
  7 35  2  0
 35 36  1  0
 36 37  2  0
 37 38  1  0
 38 39  2  0
 39 40  1  0
 40 41  1  0
 39 42  1  0
 42 43  1  0
 43 44  2  0
 43 45  1  0
 45 46  1  0
 46 47  2  0
 47 48  1  0
 47 49  1  0
 49 50  2  0
 50 51  1  0
 51 52  2  0
 52 46  1  0
 52 53  1  0
 42 54  2  0
 54 36  1  0
 35 55  1  0
 55 56  2  0
 56  6  1  0
 56 57  1  0
 57  3  2  0
M  END
> <Name>
CHEMBL3940401

> <pChEMBL_Value>
6.00

$$$$
CHEMBL3934556
  SciTegic08122012322D

 58 65  0  0  0  0            999 V2000
  -10.0679   -4.0124    0.0000 C   0  0
   -8.9774   -2.9825    0.0000 C   0  0
   -7.5391   -3.4113    0.0000 O   0  0
   -6.4479   -2.3809    0.0000 C   0  0
   -6.7976   -0.9222    0.0000 C   0  0
   -5.7092    0.1100    0.0000 C   0  0
   -6.0590    1.5694    0.0000 N   0  0
   -7.4964    1.9983    0.0000 C   0  0
   -7.8438    3.4575    0.0000 C   0  0
   -6.7537    4.4879    0.0000 C   0  0
   -7.1012    5.9479    0.0000 N   0  0
   -8.5380    6.3791    0.0000 C   0  0
   -8.8830    7.8389    0.0000 C   0  0
   -7.7913    8.8676    0.0000 N   0  0
   -8.1365   10.3281    0.0000 S   0  0
   -7.0445   11.3565    0.0000 C   0  0
   -9.5730   10.7601    0.0000 O   0  0
   -8.4809   11.7881    0.0000 O   0  0
   -6.3546    8.4365    0.0000 C   0  0
   -6.0096    6.9767    0.0000 C   0  0
   -5.3163    4.0591    0.0000 C   0  0
   -4.9690    2.5999    0.0000 C   0  0
   -4.2711   -0.3166    0.0000 C   0  0
   -3.9214   -1.7752    0.0000 C   0  0
   -5.0098   -2.8075    0.0000 C   0  0
   -4.6570   -4.2663    0.0000 N   0  0
   -3.2175   -4.6910    0.0000 C   0  0
   -2.8628   -6.1485    0.0000 N   0  0
   -1.4233   -6.5700    0.0000 C   0  0
   -0.3384   -5.5341    0.0000 C   0  0
   -0.6928   -4.0817    0.0000 C   0  0
    0.3114   -2.9665    0.0000 C   0  0
    1.8032   -3.1233    0.0000 C   0  0
    2.5536   -4.4230    0.0000 C   0  0
    1.9048   -5.7699    0.0000 C   0  0
    2.7505   -7.0088    0.0000 C   0  0
    4.2462   -6.8959    0.0000 C   0  0
    4.8963   -5.5441    0.0000 C   0  0
    6.3927   -5.4281    0.0000 C   0  0
    7.2405   -6.6656    0.0000 O   0  0
    7.0412   -4.0747    0.0000 N   0  0
    8.5376   -3.9587    0.0000 C   0  0
    9.1878   -2.6069    0.0000 C   0  0
    8.3421   -1.3679    0.0000 F   0  0
   10.6835   -2.4940    0.0000 C   0  0
   11.5292   -3.7329    0.0000 C   0  0
   10.8791   -5.0847    0.0000 C   0  0
    9.3833   -5.1976    0.0000 C   0  0
    8.7333   -6.5494    0.0000 F   0  0
    4.0507   -4.3052    0.0000 C   0  0
    2.4133   -1.7530    0.0000 N   0  0
    1.2990   -0.7500    0.0000 C   0  0
    1.2990    0.7500    0.0000 C   0  0
    0.0000    1.5000    0.0000 C   0  0
   -1.2990    0.7500    0.0000 C   0  0
   -1.2990   -0.7500    0.0000 C   0  0
    0.0000   -1.5000    0.0000 N   0  0
   -2.1327   -3.6551    0.0000 N   0  0
  1  2  1  0
  2  3  1  0
  3  4  1  0
  4  5  2  0
  5  6  1  0
  6  7  1  0
  7  8  1  0
  8  9  1  0
  9 10  1  0
 10 11  1  0
 11 12  1  0
 12 13  1  0
 13 14  1  0
 14 15  1  0
 15 16  1  0
 15 17  2  0
 15 18  2  0
 14 19  1  0
 19 20  1  0
 20 11  1  0
 10 21  1  0
 21 22  1  0
 22  7  1  0
  6 23  2  0
 23 24  1  0
 24 25  2  0
 25  4  1  0
 25 26  1  0
 26 27  1  0
 27 28  2  0
 28 29  1  0
 29 30  2  0
 30 31  1  0
 31 32  1  0
 32 33  2  0
 33 34  1  0
 34 35  2  0
 35 36  1  0
 36 37  2  0
 37 38  1  0
 38 39  1  0
 39 40  2  0
 39 41  1  0
 41 42  1  0
 42 43  2  0
 43 44  1  0
 43 45  1  0
 45 46  2  0
 46 47  1  0
 47 48  2  0
 48 42  1  0
 48 49  1  0
 38 50  2  0
 50 34  1  0
 33 51  1  0
 51 52  2  0
 52 53  1  0
 53 54  2  0
 54 55  1  0
 55 56  2  0
 56 57  1  0
 57 32  1  0
 57 52  1  0
 31 58  2  0
 58 27  1  0
M  END
> <Name>
CHEMBL3934556

> <pChEMBL_Value>
6.00

$$$$
CHEMBL3976571
  SciTegic08122012322D

 52 58  0  0  0  0            999 V2000
   -8.9133    7.8237    0.0000 C   0  0
   -8.5583    6.3663    0.0000 C   0  0
   -7.1182    5.9439    0.0000 C   0  0
   -6.7630    4.4857    0.0000 N   0  0
   -5.3242    4.0615    0.0000 C   0  0
   -4.9723    2.6034    0.0000 C   0  0
   -6.0590    1.5694    0.0000 N   0  0
   -5.7092    0.1100    0.0000 C   0  0
   -4.2711   -0.3166    0.0000 C   0  0
   -3.9214   -1.7752    0.0000 C   0  0
   -5.0098   -2.8075    0.0000 C   0  0
   -4.6570   -4.2663    0.0000 N   0  0
   -3.2175   -4.6910    0.0000 C   0  0
   -2.8628   -6.1485    0.0000 N   0  0
   -1.4233   -6.5700    0.0000 C   0  0
   -0.3384   -5.5341    0.0000 C   0  0
   -0.6928   -4.0817    0.0000 C   0  0
    0.3114   -2.9665    0.0000 C   0  0
    1.8032   -3.1233    0.0000 C   0  0
    2.5536   -4.4230    0.0000 C   0  0
    1.9048   -5.7699    0.0000 C   0  0
    2.7505   -7.0088    0.0000 C   0  0
    4.2462   -6.8959    0.0000 C   0  0
    5.0898   -8.1373    0.0000 O   0  0
    4.4377   -9.4881    0.0000 C   0  0
    4.8963   -5.5441    0.0000 C   0  0
    6.3927   -5.4281    0.0000 C   0  0
    7.2405   -6.6656    0.0000 O   0  0
    7.0412   -4.0747    0.0000 N   0  0
    8.5376   -3.9587    0.0000 C   0  0
    9.1878   -2.6069    0.0000 C   0  0
    8.3421   -1.3679    0.0000 F   0  0
   10.6835   -2.4940    0.0000 C   0  0
   11.5292   -3.7329    0.0000 C   0  0
   10.8791   -5.0847    0.0000 C   0  0
    9.3833   -5.1976    0.0000 C   0  0
    8.7333   -6.5494    0.0000 F   0  0
    4.0507   -4.3052    0.0000 C   0  0
    2.4133   -1.7530    0.0000 N   0  0
    1.2990   -0.7500    0.0000 C   0  0
    1.2990    0.7500    0.0000 C   0  0
    0.0000    1.5000    0.0000 C   0  0
   -1.2990    0.7500    0.0000 C   0  0
   -1.2990   -0.7500    0.0000 C   0  0
    0.0000   -1.5000    0.0000 N   0  0
   -2.1327   -3.6551    0.0000 N   0  0
   -6.4479   -2.3809    0.0000 C   0  0
   -7.5391   -3.4113    0.0000 O   0  0
   -8.9766   -2.9827    0.0000 C   0  0
   -6.7976   -0.9222    0.0000 C   0  0
   -7.4978    1.9937    0.0000 C   0  0
   -7.8498    3.4518    0.0000 C   0  0
  1  2  1  0
  2  3  1  0
  3  4  1  0
  4  5  1  0
  5  6  1  0
  6  7  1  0
  7  8  1  0
  8  9  2  0
  9 10  1  0
 10 11  2  0
 11 12  1  0
 12 13  1  0
 13 14  2  0
 14 15  1  0
 15 16  2  0
 16 17  1  0
 17 18  1  0
 18 19  2  0
 19 20  1  0
 20 21  2  0
 21 22  1  0
 22 23  2  0
 23 24  1  0
 24 25  1  0
 23 26  1  0
 26 27  1  0
 27 28  2  0
 27 29  1  0
 29 30  1  0
 30 31  2  0
 31 32  1  0
 31 33  1  0
 33 34  2  0
 34 35  1  0
 35 36  2  0
 36 30  1  0
 36 37  1  0
 26 38  2  0
 38 20  1  0
 19 39  1  0
 39 40  2  0
 40 41  1  0
 41 42  2  0
 42 43  1  0
 43 44  2  0
 44 45  1  0
 45 18  1  0
 45 40  1  0
 17 46  2  0
 46 13  1  0
 11 47  1  0
 47 48  1  0
 48 49  1  0
 47 50  2  0
 50  8  1  0
  7 51  1  0
 51 52  1  0
 52  4  1  0
M  END
> <Name>
CHEMBL3976571

> <pChEMBL_Value>
6.00

$$$$
CHEMBL4095071
  SciTegic08122012322D

 43 48  0  0  1  0            999 V2000
    4.5246   -7.2506    0.0000 C   0  0
    3.9195   -5.8781    0.0000 C   0  0
    4.8054   -4.6666    0.0000 C   0  0
    6.2966   -4.8284    0.0000 O   0  0
    4.2010   -3.2956    0.0000 N   0  0
    4.9531   -1.9978    0.0000 C   0  0
    3.9511   -0.8815    0.0000 C   0  0
    2.5987   -1.5004    0.0000 C   0  0  2  0  0  0
    1.2990   -0.7500    0.0000 N   0  0
    1.2990    0.7500    0.0000 C   0  0
    2.5981    1.5000    0.0000 O   0  0
    0.0000    1.5000    0.0000 N   0  0
    0.0000    3.0008    0.0000 C   0  0
   -1.3002    3.7488    0.0000 C   0  0
   -1.3026    5.2488    0.0000 C   0  0
   -2.6020    5.9998    0.0000 O   0  0
   -2.6023    7.4998    0.0000 C   0  0
   -0.0048    6.0009    0.0000 C   0  0
    1.2954    5.2529    0.0000 C   0  0
    1.2978    3.7529    0.0000 C   0  0
    2.5981    3.0050    0.0000 F   0  0
   -1.2990    0.7500    0.0000 C   0  0
   -1.2990   -0.7500    0.0000 C   0  0
   -2.5981   -1.5000    0.0000 C   0  0
   -2.5981   -3.0000    0.0000 N   0  0
   -1.2990   -3.7500    0.0000 C   0  0
   -1.2959   -5.2508    0.0000 N   0  0
    0.0049   -5.9994    0.0000 C   0  0
    0.0102   -7.4994    0.0000 C   0  0
    1.3118   -8.2449    0.0000 C   0  0
    2.6082   -7.4904    0.0000 C   0  0
    3.9105   -8.2363    0.0000 N   0  0
    3.9182   -9.7363    0.0000 C   0  0
    5.2210  -10.4798    0.0000 C   0  0
    6.5162   -9.7232    0.0000 N   0  0
    7.8190  -10.4666    0.0000 C   0  0
    6.5087   -8.2232    0.0000 C   0  0
    5.2059   -7.4798    0.0000 C   0  0
    2.6030   -5.9904    0.0000 C   0  0
    1.3014   -5.2449    0.0000 C   0  0
    0.0000   -3.0000    0.0000 N   0  0
    0.0000   -1.5000    0.0000 C   0  0
    2.7343   -2.9815    0.0000 C   0  0
  1  2  1  0
  2  3  1  0
  3  4  2  0
  3  5  1  0
  5  6  1  0
  6  7  1  0
  7  8  1  0
  8  9  1  1
  9 10  1  0
 10 11  2  0
 10 12  1  0
 12 13  1  0
 13 14  2  0
 14 15  1  0
 15 16  1  0
 16 17  1  0
 15 18  2  0
 18 19  1  0
 19 20  2  0
 20 13  1  0
 20 21  1  0
 12 22  1  0
 22 23  1  0
 23 24  2  0
 24 25  1  0
 25 26  2  0
 26 27  1  0
 27 28  1  0
 28 29  2  0
 29 30  1  0
 30 31  2  0
 31 32  1  0
 32 33  1  0
 33 34  1  0
 34 35  1  0
 35 36  1  0
 35 37  1  0
 37 38  1  0
 38 32  1  0
 31 39  1  0
 39 40  2  0
 40 28  1  0
 26 41  1  0
 41 42  2  0
 42 23  1  0
 42  9  1  0
  8 43  1  0
 43  5  1  0
M  END
> <Name>
CHEMBL4095071

> <pChEMBL_Value>
5.96

$$$$
CHEMBL2437461
  SciTegic08122012322D

 36 40  0  0  0  0            999 V2000
    7.7795   -7.5156    0.0000 C   0  0
    7.7840   -6.0157    0.0000 C   0  0
    6.4870   -5.2605    0.0000 C   0  0
    5.1855   -6.0062    0.0000 O   0  0
    6.4915   -3.7597    0.0000 N   0  0
    5.1945   -3.0045    0.0000 C   0  0
    5.1969   -1.5045    0.0000 C   0  0
    3.8991   -0.7525    0.0000 C   0  0
    2.5987   -1.5004    0.0000 C   0  0
    1.2990   -0.7500    0.0000 N   0  0
    1.2990    0.7500    0.0000 C   0  0
    2.5981    1.5000    0.0000 O   0  0
    0.0000    1.5000    0.0000 C   0  0
   -1.2990    0.7500    0.0000 N   0  0
   -1.2990   -0.7500    0.0000 C   0  0
   -2.5981   -1.5000    0.0000 C   0  0
   -2.5981   -3.0000    0.0000 N   0  0
   -1.2990   -3.7500    0.0000 C   0  0
   -1.2959   -5.2508    0.0000 N   0  0
    0.0049   -5.9994    0.0000 C   0  0
    0.0102   -7.4994    0.0000 C   0  0
    1.3118   -8.2449    0.0000 C   0  0
    2.6082   -7.4904    0.0000 C   0  0
    3.9105   -8.2363    0.0000 N   0  0
    3.9182   -9.7363    0.0000 C   0  0
    5.2210  -10.4798    0.0000 C   0  0
    6.5162   -9.7232    0.0000 N   0  0
    7.8190  -10.4666    0.0000 C   0  0
    6.5087   -8.2232    0.0000 C   0  0
    5.2059   -7.4798    0.0000 C   0  0
    2.6030   -5.9904    0.0000 C   0  0
    1.3014   -5.2449    0.0000 C   0  0
    0.0000   -3.0000    0.0000 N   0  0
    0.0000   -1.5000    0.0000 C   0  0
    2.5965   -3.0004    0.0000 C   0  0
    3.8943   -3.7525    0.0000 C   0  0
  1  2  2  0
  2  3  1  0
  3  4  2  0
  3  5  1  0
  5  6  1  0
  6  7  2  0
  7  8  1  0
  8  9  2  0
  9 10  1  0
 10 11  1  0
 11 12  2  0
 11 13  1  0
 13 14  2  0
 14 15  1  0
 15 16  2  0
 16 17  1  0
 17 18  2  0
 18 19  1  0
 19 20  1  0
 20 21  2  0
 21 22  1  0
 22 23  2  0
 23 24  1  0
 24 25  1  0
 25 26  1  0
 26 27  1  0
 27 28  1  0
 27 29  1  0
 29 30  1  0
 30 24  1  0
 23 31  1  0
 31 32  2  0
 32 20  1  0
 18 33  1  0
 33 34  2  0
 34 15  1  0
 34 10  1  0
  9 35  1  0
 35 36  2  0
 36  6  1  0
M  END
> <Name>
CHEMBL2437461

> <pChEMBL_Value>
5.96

$$$$
CHEMBL2426279
  SciTegic08122012322D

 36 40  0  0  0  0            999 V2000
   -2.8827  -11.5495    0.0000 C   0  0
   -4.3226  -11.1290    0.0000 C   0  0
   -4.6795   -9.6712    0.0000 C   0  0
   -3.5958   -8.6342    0.0000 O   0  0
   -6.1202   -9.2506    0.0000 N   0  0
   -6.4771   -7.7928    0.0000 C   0  0
   -5.3916   -6.7576    0.0000 C   0  0
   -5.7452   -5.2998    0.0000 C   0  0
   -4.6570   -4.2663    0.0000 N   0  0
   -3.2175   -4.6910    0.0000 C   0  0
   -2.8628   -6.1485    0.0000 N   0  0
   -1.4233   -6.5700    0.0000 C   0  0
   -0.3384   -5.5341    0.0000 C   0  0
   -0.6928   -4.0817    0.0000 C   0  0
    0.3114   -2.9665    0.0000 C   0  0
    1.8032   -3.1233    0.0000 C   0  0
    2.4133   -1.7530    0.0000 N   0  0
    1.2990   -0.7500    0.0000 C   0  0
    1.2990    0.7500    0.0000 C   0  0
    0.0000    1.5000    0.0000 C   0  0
   -1.2990    0.7500    0.0000 C   0  0
   -1.2990   -0.7500    0.0000 C   0  0
    0.0000   -1.5000    0.0000 C   0  0
   -2.1327   -3.6551    0.0000 N   0  0
   -7.1846   -4.8774    0.0000 C   0  0
   -7.5416   -3.4196    0.0000 O   0  0
   -8.9814   -2.9992    0.0000 C   0  0
   -8.2701   -5.9126    0.0000 C   0  0
   -7.9164   -7.3703    0.0000 C   0  0
   -9.0024   -8.4060    0.0000 N   0  0
  -10.4425   -7.9859    0.0000 C   0  0
  -11.5263   -9.0228    0.0000 C   0  0
  -11.1703  -10.4799    0.0000 N   0  0
  -12.2542  -11.5168    0.0000 C   0  0
   -9.7303  -10.9001    0.0000 C   0  0
   -8.6465   -9.8632    0.0000 C   0  0
  1  2  2  0
  2  3  1  0
  3  4  2  0
  3  5  1  0
  5  6  1  0
  6  7  2  0
  7  8  1  0
  8  9  1  0
  9 10  1  0
 10 11  2  0
 11 12  1  0
 12 13  2  0
 13 14  1  0
 14 15  1  0
 15 16  2  0
 16 17  1  0
 17 18  1  0
 18 19  2  0
 19 20  1  0
 20 21  2  0
 21 22  1  0
 22 23  2  0
 23 15  1  0
 23 18  1  0
 14 24  2  0
 24 10  1  0
  8 25  2  0
 25 26  1  0
 26 27  1  0
 25 28  1  0
 28 29  2  0
 29  6  1  0
 29 30  1  0
 30 31  1  0
 31 32  1  0
 32 33  1  0
 33 34  1  0
 33 35  1  0
 35 36  1  0
 36 30  1  0
M  END
> <Name>
CHEMBL2426279

> <pChEMBL_Value>
5.92

$$$$
CHEMBL4103761
  SciTegic08122012322D

 44 49  0  0  1  0            999 V2000
    4.5246   -7.2506    0.0000 C   0  0
    3.9195   -5.8781    0.0000 C   0  0
    4.8054   -4.6666    0.0000 C   0  0
    6.2966   -4.8284    0.0000 O   0  0
    4.2010   -3.2956    0.0000 N   0  0
    4.9531   -1.9978    0.0000 C   0  0
    3.9511   -0.8815    0.0000 C   0  0
    2.5987   -1.5004    0.0000 C   0  0  2  0  0  0
    1.2990   -0.7500    0.0000 N   0  0
    0.0000   -1.5000    0.0000 C   0  0
    0.0000   -3.0000    0.0000 O   0  0
   -1.2990   -0.7500    0.0000 N   0  0
   -2.5987   -1.5004    0.0000 C   0  0
   -3.8967   -0.7484    0.0000 C   0  0
   -5.1969   -1.4963    0.0000 C   0  0
   -6.4970   -0.7465    0.0000 O   0  0
   -7.7962   -1.4963    0.0000 C   0  0
   -5.1993   -2.9963    0.0000 C   0  0
   -3.9014   -3.7484    0.0000 C   0  0
   -2.6012   -3.0004    0.0000 C   0  0
   -1.3034   -3.7525    0.0000 F   0  0
   -1.2990    0.7500    0.0000 C   0  0
    0.0000    1.5000    0.0000 C   0  0
    0.0000    3.0000    0.0000 C   0  0
    1.2990    3.7500    0.0000 N   0  0
    2.5981    3.0000    0.0000 C   0  0
    3.8994    3.7477    0.0000 N   0  0
    5.1981    2.9955    0.0000 C   0  0
    6.4997    3.7409    0.0000 C   0  0
    7.7962    2.9864    0.0000 C   0  0
    7.7910    1.4864    0.0000 C   0  0
    9.0881    0.7316    0.0000 N   0  0
   10.3910    1.4750    0.0000 C   0  0
   11.6862    0.7184    0.0000 C   0  0
   11.6787   -0.7816    0.0000 N   0  0
   12.9739   -1.5381    0.0000 C   0  0
   10.3759   -1.5250    0.0000 C   0  0
    9.0806   -0.7685    0.0000 C   0  0
    6.4894    0.7409    0.0000 C   0  0
    6.4842   -0.7590    0.0000 Cl  0  0
    5.1929    1.4954    0.0000 C   0  0
    2.5981    1.5000    0.0000 N   0  0
    1.2990    0.7500    0.0000 C   0  0
    2.7343   -2.9815    0.0000 C   0  0
  1  2  1  0
  2  3  1  0
  3  4  2  0
  3  5  1  0
  5  6  1  0
  6  7  1  0
  7  8  1  0
  8  9  1  1
  9 10  1  0
 10 11  2  0
 10 12  1  0
 12 13  1  0
 13 14  2  0
 14 15  1  0
 15 16  1  0
 16 17  1  0
 15 18  2  0
 18 19  1  0
 19 20  2  0
 20 13  1  0
 20 21  1  0
 12 22  1  0
 22 23  1  0
 23 24  2  0
 24 25  1  0
 25 26  2  0
 26 27  1  0
 27 28  1  0
 28 29  2  0
 29 30  1  0
 30 31  2  0
 31 32  1  0
 32 33  1  0
 33 34  1  0
 34 35  1  0
 35 36  1  0
 35 37  1  0
 37 38  1  0
 38 32  1  0
 31 39  1  0
 39 40  1  0
 39 41  2  0
 41 28  1  0
 26 42  1  0
 42 43  2  0
 43 23  1  0
 43  9  1  0
  8 44  1  0
 44  5  1  0
M  END
> <Name>
CHEMBL4103761

> <pChEMBL_Value>
5.92

$$$$
CHEMBL4079506
  SciTegic08122012322D

 44 49  0  0  1  0            999 V2000
    4.5246   -7.2506    0.0000 C   0  0
    3.9195   -5.8781    0.0000 C   0  0
    4.8054   -4.6666    0.0000 C   0  0
    6.2966   -4.8284    0.0000 O   0  0
    4.2010   -3.2956    0.0000 N   0  0
    4.9531   -1.9978    0.0000 C   0  0
    3.9511   -0.8815    0.0000 C   0  0
    2.5987   -1.5004    0.0000 C   0  0  2  0  0  0
    1.2990   -0.7500    0.0000 N   0  0
    0.0000   -1.5000    0.0000 C   0  0
    0.0000   -3.0000    0.0000 O   0  0
   -1.2990   -0.7500    0.0000 N   0  0
   -2.5987   -1.5004    0.0000 C   0  0
   -3.8967   -0.7484    0.0000 C   0  0
   -5.1969   -1.4963    0.0000 C   0  0
   -6.4970   -0.7465    0.0000 O   0  0
   -7.7962   -1.4963    0.0000 C   0  0
   -5.1993   -2.9963    0.0000 C   0  0
   -3.9014   -3.7484    0.0000 C   0  0
   -2.6012   -3.0004    0.0000 C   0  0
   -1.3034   -3.7525    0.0000 F   0  0
   -1.2990    0.7500    0.0000 C   0  0
    0.0000    1.5000    0.0000 C   0  0
    0.0000    3.0000    0.0000 C   0  0
    1.2990    3.7500    0.0000 N   0  0
    2.5981    3.0000    0.0000 C   0  0
    3.8994    3.7477    0.0000 N   0  0
    5.1981    2.9955    0.0000 C   0  0
    6.4997    3.7409    0.0000 C   0  0
    7.7962    2.9864    0.0000 C   0  0
    7.7910    1.4864    0.0000 C   0  0
    9.0881    0.7316    0.0000 N   0  0
   10.3910    1.4750    0.0000 C   0  0
   11.6862    0.7184    0.0000 C   0  0
   11.6787   -0.7816    0.0000 N   0  0
   12.9739   -1.5381    0.0000 C   0  0
   10.3759   -1.5250    0.0000 C   0  0
    9.0806   -0.7685    0.0000 C   0  0
    6.4894    0.7409    0.0000 C   0  0
    6.4842   -0.7590    0.0000 F   0  0
    5.1929    1.4954    0.0000 C   0  0
    2.5981    1.5000    0.0000 N   0  0
    1.2990    0.7500    0.0000 C   0  0
    2.7343   -2.9815    0.0000 C   0  0
  1  2  1  0
  2  3  1  0
  3  4  2  0
  3  5  1  0
  5  6  1  0
  6  7  1  0
  7  8  1  0
  8  9  1  1
  9 10  1  0
 10 11  2  0
 10 12  1  0
 12 13  1  0
 13 14  2  0
 14 15  1  0
 15 16  1  0
 16 17  1  0
 15 18  2  0
 18 19  1  0
 19 20  2  0
 20 13  1  0
 20 21  1  0
 12 22  1  0
 22 23  1  0
 23 24  2  0
 24 25  1  0
 25 26  2  0
 26 27  1  0
 27 28  1  0
 28 29  2  0
 29 30  1  0
 30 31  2  0
 31 32  1  0
 32 33  1  0
 33 34  1  0
 34 35  1  0
 35 36  1  0
 35 37  1  0
 37 38  1  0
 38 32  1  0
 31 39  1  0
 39 40  1  0
 39 41  2  0
 41 28  1  0
 26 42  1  0
 42 43  2  0
 43 23  1  0
 43  9  1  0
  8 44  1  0
 44  5  1  0
M  END
> <Name>
CHEMBL4079506

> <pChEMBL_Value>
5.89

$$$$
CHEMBL4076515
  SciTegic08122012322D

 44 48  0  0  1  0            999 V2000
    4.5246   -7.2506    0.0000 C   0  0
    3.9195   -5.8781    0.0000 C   0  0
    4.8054   -4.6666    0.0000 C   0  0
    6.2966   -4.8284    0.0000 O   0  0
    4.2010   -3.2956    0.0000 N   0  0
    4.9531   -1.9978    0.0000 C   0  0
    3.9511   -0.8815    0.0000 C   0  0
    2.5987   -1.5004    0.0000 C   0  0  2  0  0  0
    1.2990   -0.7500    0.0000 N   0  0
    0.0000   -1.5000    0.0000 C   0  0
    0.0000   -3.0000    0.0000 O   0  0
   -1.2990   -0.7500    0.0000 N   0  0
   -2.5987   -1.5004    0.0000 C   0  0
   -3.8967   -0.7484    0.0000 C   0  0
   -5.1969   -1.4963    0.0000 C   0  0
   -6.4970   -0.7465    0.0000 O   0  0
   -7.7962   -1.4963    0.0000 C   0  0
   -5.1993   -2.9963    0.0000 C   0  0
   -3.9014   -3.7484    0.0000 C   0  0
   -2.6012   -3.0004    0.0000 C   0  0
   -1.3034   -3.7525    0.0000 F   0  0
   -1.2990    0.7500    0.0000 C   0  0
    0.0000    1.5000    0.0000 C   0  0
    0.0000    3.0000    0.0000 C   0  0
    1.2990    3.7500    0.0000 N   0  0
    2.5981    3.0000    0.0000 C   0  0
    3.8994    3.7477    0.0000 N   0  0
    5.1981    2.9955    0.0000 C   0  0
    6.4997    3.7409    0.0000 C   0  0
    7.7962    2.9864    0.0000 C   0  0
    7.7910    1.4864    0.0000 C   0  0
    9.0897    0.7342    0.0000 N   0  0
    9.0871   -0.7658    0.0000 C   0  0
   10.3910    1.4820    0.0000 C   0  0
   11.6897    0.7297    0.0000 C   0  0
   12.9910    1.4775    0.0000 N   0  0
   14.2889    0.7257    0.0000 C   0  0
   12.9935    2.9775    0.0000 C   0  0
    6.4894    0.7409    0.0000 C   0  0
    6.4842   -0.7590    0.0000 C   0  0
    5.1929    1.4954    0.0000 C   0  0
    2.5981    1.5000    0.0000 N   0  0
    1.2990    0.7500    0.0000 C   0  0
    2.7343   -2.9815    0.0000 C   0  0
  1  2  1  0
  2  3  1  0
  3  4  2  0
  3  5  1  0
  5  6  1  0
  6  7  1  0
  7  8  1  0
  8  9  1  1
  9 10  1  0
 10 11  2  0
 10 12  1  0
 12 13  1  0
 13 14  2  0
 14 15  1  0
 15 16  1  0
 16 17  1  0
 15 18  2  0
 18 19  1  0
 19 20  2  0
 20 13  1  0
 20 21  1  0
 12 22  1  0
 22 23  1  0
 23 24  2  0
 24 25  1  0
 25 26  2  0
 26 27  1  0
 27 28  1  0
 28 29  2  0
 29 30  1  0
 30 31  2  0
 31 32  1  0
 32 33  1  0
 32 34  1  0
 34 35  1  0
 35 36  1  0
 36 37  1  0
 36 38  1  0
 31 39  1  0
 39 40  1  0
 39 41  2  0
 41 28  1  0
 26 42  1  0
 42 43  2  0
 43 23  1  0
 43  9  1  0
  8 44  1  0
 44  5  1  0
M  END
> <Name>
CHEMBL4076515

> <pChEMBL_Value>
5.89

$$$$
CHEMBL4087383
  SciTegic08122012322D

 45 50  0  0  1  0            999 V2000
    4.5246   -7.2506    0.0000 C   0  0
    3.9195   -5.8781    0.0000 C   0  0
    4.8054   -4.6666    0.0000 C   0  0
    6.2966   -4.8284    0.0000 O   0  0
    4.2010   -3.2956    0.0000 N   0  0
    4.9531   -1.9978    0.0000 C   0  0
    3.9511   -0.8815    0.0000 C   0  0
    2.5987   -1.5004    0.0000 C   0  0  2  0  0  0
    1.2990   -0.7500    0.0000 N   0  0
    1.2990    0.7500    0.0000 C   0  0
    2.5981    1.5000    0.0000 O   0  0
    0.0000    1.5000    0.0000 N   0  0
    0.0000    3.0008    0.0000 C   0  0
   -1.3002    3.7488    0.0000 C   0  0
   -1.3026    5.2488    0.0000 C   0  0
   -2.6020    5.9998    0.0000 O   0  0
   -2.6023    7.4998    0.0000 C   0  0
   -0.0048    6.0009    0.0000 C   0  0
    1.2954    5.2529    0.0000 C   0  0
    1.2978    3.7529    0.0000 C   0  0
    2.5981    3.0050    0.0000 F   0  0
   -1.2990    0.7500    0.0000 C   0  0
   -1.2990   -0.7500    0.0000 C   0  0
   -2.5981   -1.5000    0.0000 C   0  0
   -2.5981   -3.0000    0.0000 N   0  0
   -1.2990   -3.7500    0.0000 C   0  0
   -1.2959   -5.2508    0.0000 N   0  0
    0.0049   -5.9994    0.0000 C   0  0
    1.3014   -5.2449    0.0000 C   0  0
    2.6030   -5.9904    0.0000 C   0  0
    2.6082   -7.4904    0.0000 C   0  0
    3.9105   -8.2363    0.0000 N   0  0
    5.2082   -7.4839    0.0000 C   0  0
    6.5087   -8.2315    0.0000 C   0  0
    6.5115   -9.7315    0.0000 N   0  0
    7.8119  -10.4791    0.0000 C   0  0
    5.2139  -10.4839    0.0000 C   0  0
    3.9134   -9.7363    0.0000 C   0  0
    1.3118   -8.2449    0.0000 C   0  0
    0.0102   -7.4994    0.0000 C   0  0
   -1.2854   -8.2570    0.0000 O   0  0
   -1.2780   -9.7570    0.0000 C   0  0
    0.0000   -3.0000    0.0000 N   0  0
    0.0000   -1.5000    0.0000 C   0  0
    2.7343   -2.9815    0.0000 C   0  0
  1  2  1  0
  2  3  1  0
  3  4  2  0
  3  5  1  0
  5  6  1  0
  6  7  1  0
  7  8  1  0
  8  9  1  1
  9 10  1  0
 10 11  2  0
 10 12  1  0
 12 13  1  0
 13 14  2  0
 14 15  1  0
 15 16  1  0
 16 17  1  0
 15 18  2  0
 18 19  1  0
 19 20  2  0
 20 13  1  0
 20 21  1  0
 12 22  1  0
 22 23  1  0
 23 24  2  0
 24 25  1  0
 25 26  2  0
 26 27  1  0
 27 28  1  0
 28 29  2  0
 29 30  1  0
 30 31  2  0
 31 32  1  0
 32 33  1  0
 33 34  1  0
 34 35  1  0
 35 36  1  0
 35 37  1  0
 37 38  1  0
 38 32  1  0
 31 39  1  0
 39 40  2  0
 40 28  1  0
 40 41  1  0
 41 42  1  0
 26 43  1  0
 43 44  2  0
 44 23  1  0
 44  9  1  0
  8 45  1  0
 45  5  1  0
M  END
> <Name>
CHEMBL4087383

> <pChEMBL_Value>
5.80

$$$$
CHEMBL4074615
  SciTegic08122012322D

 44 49  0  0  1  0            999 V2000
    4.5246   -7.2506    0.0000 C   0  0
    3.9195   -5.8781    0.0000 C   0  0
    4.8054   -4.6666    0.0000 C   0  0
    6.2966   -4.8284    0.0000 O   0  0
    4.2010   -3.2956    0.0000 N   0  0
    4.9531   -1.9978    0.0000 C   0  0
    3.9511   -0.8815    0.0000 C   0  0
    2.5987   -1.5004    0.0000 C   0  0  2  0  0  0
    1.2990   -0.7500    0.0000 N   0  0
    1.2990    0.7500    0.0000 C   0  0
    2.5981    1.5000    0.0000 O   0  0
    0.0000    1.5000    0.0000 N   0  0
    0.0000    3.0008    0.0000 C   0  0
   -1.3002    3.7488    0.0000 C   0  0
   -1.3026    5.2488    0.0000 C   0  0
   -2.6020    5.9998    0.0000 O   0  0
   -2.6023    7.4998    0.0000 C   0  0
   -0.0048    6.0009    0.0000 C   0  0
    1.2954    5.2529    0.0000 C   0  0
    1.2978    3.7529    0.0000 C   0  0
    2.5981    3.0050    0.0000 F   0  0
   -1.2990    0.7500    0.0000 C   0  0
   -1.2990   -0.7500    0.0000 C   0  0
   -2.5981   -1.5000    0.0000 C   0  0
   -2.5981   -3.0000    0.0000 N   0  0
   -1.2990   -3.7500    0.0000 C   0  0
   -1.2959   -5.2508    0.0000 N   0  0
    0.0049   -5.9994    0.0000 C   0  0
    1.3014   -5.2449    0.0000 C   0  0
    2.6030   -5.9904    0.0000 C   0  0
    2.6082   -7.4904    0.0000 C   0  0
    3.9105   -8.2363    0.0000 N   0  0
    5.2082   -7.4839    0.0000 C   0  0
    6.5087   -8.2315    0.0000 C   0  0
    6.5115   -9.7315    0.0000 N   0  0
    7.8119  -10.4791    0.0000 C   0  0
    5.2139  -10.4839    0.0000 C   0  0
    3.9134   -9.7363    0.0000 C   0  0
    1.3118   -8.2449    0.0000 C   0  0
    0.0102   -7.4994    0.0000 C   0  0
   -1.2862   -8.2539    0.0000 C   0  0
    0.0000   -3.0000    0.0000 N   0  0
    0.0000   -1.5000    0.0000 C   0  0
    2.7343   -2.9815    0.0000 C   0  0
  1  2  1  0
  2  3  1  0
  3  4  2  0
  3  5  1  0
  5  6  1  0
  6  7  1  0
  7  8  1  0
  8  9  1  1
  9 10  1  0
 10 11  2  0
 10 12  1  0
 12 13  1  0
 13 14  2  0
 14 15  1  0
 15 16  1  0
 16 17  1  0
 15 18  2  0
 18 19  1  0
 19 20  2  0
 20 13  1  0
 20 21  1  0
 12 22  1  0
 22 23  1  0
 23 24  2  0
 24 25  1  0
 25 26  2  0
 26 27  1  0
 27 28  1  0
 28 29  2  0
 29 30  1  0
 30 31  2  0
 31 32  1  0
 32 33  1  0
 33 34  1  0
 34 35  1  0
 35 36  1  0
 35 37  1  0
 37 38  1  0
 38 32  1  0
 31 39  1  0
 39 40  2  0
 40 28  1  0
 40 41  1  0
 26 42  1  0
 42 43  2  0
 43 23  1  0
 43  9  1  0
  8 44  1  0
 44  5  1  0
M  END
> <Name>
CHEMBL4074615

> <pChEMBL_Value>
5.60

$$$$
CHEMBL4068695
  SciTegic08122012322D

 47 52  0  0  1  0            999 V2000
    6.9024   -6.2024    0.0000 C   0  0
    6.2973   -4.8299    0.0000 C   0  0
    4.8054   -4.6666    0.0000 C   0  0
    3.9189   -5.8766    0.0000 O   0  0
    4.2010   -3.2956    0.0000 N   0  0
    4.9531   -1.9978    0.0000 C   0  0
    3.9511   -0.8815    0.0000 C   0  0
    2.5987   -1.5004    0.0000 C   0  0  2  0  0  0
    1.2990   -0.7500    0.0000 N   0  0
    0.0000   -1.5000    0.0000 C   0  0
    0.0000   -3.0000    0.0000 O   0  0
   -1.2990   -0.7500    0.0000 N   0  0
   -2.5987   -1.5004    0.0000 C   0  0
   -3.8967   -0.7484    0.0000 C   0  0
   -5.1969   -1.4963    0.0000 C   0  0
   -6.4970   -0.7465    0.0000 O   0  0
   -7.7962   -1.4963    0.0000 C   0  0
   -5.1993   -2.9963    0.0000 C   0  0
   -3.9014   -3.7484    0.0000 C   0  0
   -2.6012   -3.0004    0.0000 C   0  0
   -1.3034   -3.7525    0.0000 F   0  0
   -1.2990    0.7500    0.0000 C   0  0
    0.0000    1.5000    0.0000 C   0  0
    0.0000    3.0000    0.0000 C   0  0
    1.2990    3.7500    0.0000 N   0  0
    2.5981    3.0000    0.0000 C   0  0
    3.8994    3.7477    0.0000 N   0  0
    5.1981    2.9955    0.0000 C   0  0
    6.4997    3.7409    0.0000 C   0  0
    7.7962    2.9864    0.0000 C   0  0
    7.7910    1.4864    0.0000 C   0  0
    9.0881    0.7316    0.0000 N   0  0
   10.3910    1.4750    0.0000 C   0  0
   11.6862    0.7184    0.0000 C   0  0
   11.6787   -0.7816    0.0000 N   0  0
   12.9739   -1.5381    0.0000 C   0  0
   10.3759   -1.5250    0.0000 C   0  0
    9.0806   -0.7685    0.0000 C   0  0
    6.4894    0.7409    0.0000 C   0  0
    6.4842   -0.7599    0.0000 C   0  0
    7.7801   -1.5152    0.0000 F   0  0
    5.1823   -1.5050    0.0000 F   0  0
    6.4803   -1.7599    0.0000 F   0  0
    5.1929    1.4954    0.0000 C   0  0
    2.5981    1.5000    0.0000 N   0  0
    1.2990    0.7500    0.0000 C   0  0
    2.7343   -2.9815    0.0000 C   0  0
  1  2  1  0
  2  3  1  0
  3  4  2  0
  3  5  1  0
  5  6  1  0
  6  7  1  0
  7  8  1  0
  8  9  1  1
  9 10  1  0
 10 11  2  0
 10 12  1  0
 12 13  1  0
 13 14  2  0
 14 15  1  0
 15 16  1  0
 16 17  1  0
 15 18  2  0
 18 19  1  0
 19 20  2  0
 20 13  1  0
 20 21  1  0
 12 22  1  0
 22 23  1  0
 23 24  2  0
 24 25  1  0
 25 26  2  0
 26 27  1  0
 27 28  1  0
 28 29  2  0
 29 30  1  0
 30 31  2  0
 31 32  1  0
 32 33  1  0
 33 34  1  0
 34 35  1  0
 35 36  1  0
 35 37  1  0
 37 38  1  0
 38 32  1  0
 31 39  1  0
 39 40  1  0
 40 41  1  0
 40 42  1  0
 40 43  1  0
 39 44  2  0
 44 28  1  0
 26 45  1  0
 45 46  2  0
 46 23  1  0
 46  9  1  0
  8 47  1  0
 47  5  1  0
M  END
> <Name>
CHEMBL4068695

> <pChEMBL_Value>
5.47

$$$$
CHEMBL3353408
  SciTegic08122012322D

 37 40  0  0  0  0            999 V2000
   -2.8827  -11.5495    0.0000 C   0  0
   -4.3226  -11.1290    0.0000 C   0  0
   -4.6795   -9.6712    0.0000 C   0  0
   -3.5958   -8.6342    0.0000 O   0  0
   -6.1202   -9.2506    0.0000 N   0  0
   -6.4771   -7.7928    0.0000 C   0  0
   -5.3916   -6.7576    0.0000 C   0  0
   -5.7452   -5.2998    0.0000 C   0  0
   -4.6570   -4.2663    0.0000 N   0  0
   -3.2175   -4.6910    0.0000 C   0  0
   -2.8628   -6.1485    0.0000 N   0  0
   -1.4233   -6.5700    0.0000 C   0  0
   -0.3384   -5.5341    0.0000 C   0  0
    1.1012   -5.9552    0.0000 Cl  0  0
   -0.6928   -4.0817    0.0000 C   0  0
    0.3114   -2.9665    0.0000 C   0  0
    1.8032   -3.1233    0.0000 C   0  0
    2.4133   -1.7530    0.0000 N   0  0
    1.2990   -0.7500    0.0000 C   0  0
    1.2990    0.7500    0.0000 C   0  0
    0.0000    1.5000    0.0000 C   0  0
   -1.2990    0.7500    0.0000 C   0  0
   -1.2990   -0.7500    0.0000 C   0  0
    0.0000   -1.5000    0.0000 C   0  0
   -2.1327   -3.6551    0.0000 N   0  0
   -7.1846   -4.8774    0.0000 C   0  0
   -7.5416   -3.4196    0.0000 O   0  0
   -8.9814   -2.9992    0.0000 C   0  0
   -8.2701   -5.9126    0.0000 C   0  0
   -7.9164   -7.3703    0.0000 C   0  0
   -9.0046   -8.4038    0.0000 N   0  0
   -8.6534   -9.8621    0.0000 C   0  0
  -10.4441   -7.9790    0.0000 C   0  0
  -11.5323   -9.0126    0.0000 C   0  0
  -12.9718   -8.5878    0.0000 N   0  0
  -14.0594   -9.6207    0.0000 C   0  0
  -13.3230   -7.1295    0.0000 C   0  0
  1  2  2  0
  2  3  1  0
  3  4  2  0
  3  5  1  0
  5  6  1  0
  6  7  2  0
  7  8  1  0
  8  9  1  0
  9 10  1  0
 10 11  2  0
 11 12  1  0
 12 13  2  0
 13 14  1  0
 13 15  1  0
 15 16  1  0
 16 17  2  0
 17 18  1  0
 18 19  1  0
 19 20  2  0
 20 21  1  0
 21 22  2  0
 22 23  1  0
 23 24  2  0
 24 16  1  0
 24 19  1  0
 15 25  2  0
 25 10  1  0
  8 26  2  0
 26 27  1  0
 27 28  1  0
 26 29  1  0
 29 30  2  0
 30  6  1  0
 30 31  1  0
 31 32  1  0
 31 33  1  0
 33 34  1  0
 34 35  1  0
 35 36  1  0
 35 37  1  0
M  END
> <Name>
CHEMBL3353408

> <pChEMBL_Value>
4.96

$$$$
CHEMBL2426277
  SciTegic08122012322D

 37 41  0  0  0  0            999 V2000
   -2.8827  -11.5495    0.0000 C   0  0
   -4.3226  -11.1290    0.0000 C   0  0
   -4.6795   -9.6712    0.0000 C   0  0
   -3.5958   -8.6342    0.0000 O   0  0
   -6.1202   -9.2506    0.0000 N   0  0
   -6.4771   -7.7928    0.0000 C   0  0
   -5.3916   -6.7576    0.0000 C   0  0
   -5.7452   -5.2998    0.0000 C   0  0
   -4.6570   -4.2663    0.0000 N   0  0
   -3.2175   -4.6910    0.0000 C   0  0
   -2.8628   -6.1485    0.0000 N   0  0
   -1.4233   -6.5700    0.0000 C   0  0
   -0.3384   -5.5341    0.0000 C   0  0
    1.1012   -5.9552    0.0000 Cl  0  0
   -0.6928   -4.0817    0.0000 C   0  0
    0.3114   -2.9665    0.0000 C   0  0
    1.8032   -3.1233    0.0000 C   0  0
    2.4133   -1.7530    0.0000 N   0  0
    1.2990   -0.7500    0.0000 N   0  0
    1.2990    0.7500    0.0000 C   0  0
    0.0000    1.5000    0.0000 C   0  0
   -1.2990    0.7500    0.0000 C   0  0
   -1.2990   -0.7500    0.0000 C   0  0
    0.0000   -1.5000    0.0000 C   0  0
   -2.1327   -3.6551    0.0000 N   0  0
   -7.1846   -4.8774    0.0000 C   0  0
   -7.5416   -3.4196    0.0000 O   0  0
   -8.9814   -2.9992    0.0000 C   0  0
   -8.2701   -5.9126    0.0000 C   0  0
   -7.9164   -7.3703    0.0000 C   0  0
   -9.0024   -8.4060    0.0000 N   0  0
  -10.4425   -7.9859    0.0000 C   0  0
  -11.5263   -9.0228    0.0000 C   0  0
  -11.1703  -10.4799    0.0000 N   0  0
  -12.2542  -11.5168    0.0000 C   0  0
   -9.7303  -10.9001    0.0000 C   0  0
   -8.6465   -9.8632    0.0000 C   0  0
  1  2  2  0
  2  3  1  0
  3  4  2  0
  3  5  1  0
  5  6  1  0
  6  7  2  0
  7  8  1  0
  8  9  1  0
  9 10  1  0
 10 11  2  0
 11 12  1  0
 12 13  2  0
 13 14  1  0
 13 15  1  0
 15 16  1  0
 16 17  1  0
 17 18  2  0
 18 19  1  0
 19 20  1  0
 20 21  2  0
 21 22  1  0
 22 23  2  0
 23 24  1  0
 24 16  2  0
 24 19  1  0
 15 25  2  0
 25 10  1  0
  8 26  2  0
 26 27  1  0
 27 28  1  0
 26 29  1  0
 29 30  2  0
 30  6  1  0
 30 31  1  0
 31 32  1  0
 32 33  1  0
 33 34  1  0
 34 35  1  0
 34 36  1  0
 36 37  1  0
 37 31  1  0
M  END
> <Name>
CHEMBL2426277

> <pChEMBL_Value>
4.92

$$$$
CHEMBL2424676
  SciTegic08122012322D

 36 40  0  0  0  0            999 V2000
   -2.8827  -11.5495    0.0000 C   0  0
   -4.3226  -11.1290    0.0000 C   0  0
   -4.6795   -9.6712    0.0000 C   0  0
   -3.5958   -8.6342    0.0000 O   0  0
   -6.1202   -9.2506    0.0000 N   0  0
   -6.4771   -7.7928    0.0000 C   0  0
   -5.3916   -6.7576    0.0000 C   0  0
   -5.7452   -5.2998    0.0000 C   0  0
   -4.6570   -4.2663    0.0000 N   0  0
   -3.2175   -4.6910    0.0000 C   0  0
   -2.8628   -6.1485    0.0000 N   0  0
   -1.4233   -6.5700    0.0000 C   0  0
   -0.3384   -5.5341    0.0000 C   0  0
   -0.6928   -4.0817    0.0000 C   0  0
    0.3114   -2.9665    0.0000 C   0  0
    1.8032   -3.1233    0.0000 C   0  0
    2.4133   -1.7530    0.0000 N   0  0
    1.2990   -0.7500    0.0000 N   0  0
    1.2990    0.7500    0.0000 C   0  0
    0.0000    1.5000    0.0000 C   0  0
   -1.2990    0.7500    0.0000 C   0  0
   -1.2990   -0.7500    0.0000 C   0  0
    0.0000   -1.5000    0.0000 C   0  0
   -2.1327   -3.6551    0.0000 N   0  0
   -7.1846   -4.8774    0.0000 C   0  0
   -7.5416   -3.4196    0.0000 O   0  0
   -8.9814   -2.9992    0.0000 C   0  0
   -8.2701   -5.9126    0.0000 C   0  0
   -7.9164   -7.3703    0.0000 C   0  0
   -9.0024   -8.4060    0.0000 N   0  0
  -10.4425   -7.9859    0.0000 C   0  0
  -11.5263   -9.0228    0.0000 C   0  0
  -11.1703  -10.4799    0.0000 N   0  0
  -12.2542  -11.5168    0.0000 C   0  0
   -9.7303  -10.9001    0.0000 C   0  0
   -8.6465   -9.8632    0.0000 C   0  0
  1  2  2  0
  2  3  1  0
  3  4  2  0
  3  5  1  0
  5  6  1  0
  6  7  2  0
  7  8  1  0
  8  9  1  0
  9 10  1  0
 10 11  2  0
 11 12  1  0
 12 13  2  0
 13 14  1  0
 14 15  1  0
 15 16  1  0
 16 17  2  0
 17 18  1  0
 18 19  1  0
 19 20  2  0
 20 21  1  0
 21 22  2  0
 22 23  1  0
 23 15  2  0
 23 18  1  0
 14 24  2  0
 24 10  1  0
  8 25  2  0
 25 26  1  0
 26 27  1  0
 25 28  1  0
 28 29  2  0
 29  6  1  0
 29 30  1  0
 30 31  1  0
 31 32  1  0
 32 33  1  0
 33 34  1  0
 33 35  1  0
 35 36  1  0
 36 30  1  0
M  END
> <Name>
CHEMBL2424676

> <pChEMBL_Value>
4.72

$$$$
CHEMBL3353407
  SciTegic08122012322D

 38 41  0  0  0  0            999 V2000
   -2.8827  -11.5495    0.0000 C   0  0
   -4.3226  -11.1290    0.0000 C   0  0
   -4.6795   -9.6712    0.0000 C   0  0
   -3.5958   -8.6342    0.0000 O   0  0
   -6.1202   -9.2506    0.0000 N   0  0
   -6.4771   -7.7928    0.0000 C   0  0
   -5.3916   -6.7576    0.0000 C   0  0
   -5.7452   -5.2998    0.0000 C   0  0
   -4.6570   -4.2663    0.0000 N   0  0
   -3.2175   -4.6910    0.0000 C   0  0
   -2.8628   -6.1485    0.0000 N   0  0
   -1.4233   -6.5700    0.0000 C   0  0
   -0.3384   -5.5341    0.0000 C   0  0
    1.1012   -5.9552    0.0000 Cl  0  0
   -0.6928   -4.0817    0.0000 C   0  0
    0.3114   -2.9665    0.0000 C   0  0
    1.8032   -3.1233    0.0000 C   0  0
    2.4133   -1.7530    0.0000 N   0  0
    3.8805   -1.4410    0.0000 C   0  0
    1.2990   -0.7500    0.0000 C   0  0
    1.2990    0.7500    0.0000 C   0  0
    0.0000    1.5000    0.0000 C   0  0
   -1.2990    0.7500    0.0000 C   0  0
   -1.2990   -0.7500    0.0000 C   0  0
    0.0000   -1.5000    0.0000 C   0  0
   -2.1327   -3.6551    0.0000 N   0  0
   -7.1846   -4.8774    0.0000 C   0  0
   -7.5416   -3.4196    0.0000 O   0  0
   -8.9814   -2.9992    0.0000 C   0  0
   -8.2701   -5.9126    0.0000 C   0  0
   -7.9164   -7.3703    0.0000 C   0  0
   -9.0046   -8.4038    0.0000 N   0  0
   -8.6534   -9.8621    0.0000 C   0  0
  -10.4441   -7.9790    0.0000 C   0  0
  -11.5323   -9.0126    0.0000 C   0  0
  -12.9718   -8.5878    0.0000 N   0  0
  -14.0594   -9.6207    0.0000 C   0  0
  -13.3230   -7.1295    0.0000 C   0  0
  1  2  2  0
  2  3  1  0
  3  4  2  0
  3  5  1  0
  5  6  1  0
  6  7  2  0
  7  8  1  0
  8  9  1  0
  9 10  1  0
 10 11  2  0
 11 12  1  0
 12 13  2  0
 13 14  1  0
 13 15  1  0
 15 16  1  0
 16 17  2  0
 17 18  1  0
 18 19  1  0
 18 20  1  0
 20 21  2  0
 21 22  1  0
 22 23  2  0
 23 24  1  0
 24 25  2  0
 25 16  1  0
 25 20  1  0
 15 26  2  0
 26 10  1  0
  8 27  2  0
 27 28  1  0
 28 29  1  0
 27 30  1  0
 30 31  2  0
 31  6  1  0
 31 32  1  0
 32 33  1  0
 32 34  1  0
 34 35  1  0
 35 36  1  0
 36 37  1  0
 36 38  1  0
M  END
> <Name>
CHEMBL3353407

> <pChEMBL_Value>
4.24

$$$$
CHEMBL3353409
  SciTegic08122012322D

 38 41  0  0  0  0            999 V2000
   -2.8827  -11.5495    0.0000 C   0  0
   -4.3226  -11.1290    0.0000 C   0  0
   -4.6795   -9.6712    0.0000 C   0  0
   -3.5958   -8.6342    0.0000 O   0  0
   -6.1202   -9.2506    0.0000 N   0  0
   -6.4771   -7.7928    0.0000 C   0  0
   -5.3916   -6.7576    0.0000 C   0  0
   -5.7452   -5.2998    0.0000 C   0  0
   -4.6570   -4.2663    0.0000 N   0  0
   -3.2175   -4.6910    0.0000 C   0  0
   -2.8628   -6.1485    0.0000 N   0  0
   -1.4233   -6.5700    0.0000 C   0  0
   -0.3384   -5.5341    0.0000 C   0  0
    1.1012   -5.9552    0.0000 C   0  0
   -0.6928   -4.0817    0.0000 C   0  0
    0.3114   -2.9665    0.0000 C   0  0
    1.8032   -3.1233    0.0000 C   0  0
    2.4133   -1.7530    0.0000 N   0  0
    3.8805   -1.4410    0.0000 C   0  0
    1.2990   -0.7500    0.0000 C   0  0
    1.2990    0.7500    0.0000 C   0  0
    0.0000    1.5000    0.0000 C   0  0
   -1.2990    0.7500    0.0000 C   0  0
   -1.2990   -0.7500    0.0000 C   0  0
    0.0000   -1.5000    0.0000 C   0  0
   -2.1327   -3.6551    0.0000 N   0  0
   -7.1846   -4.8774    0.0000 C   0  0
   -7.5416   -3.4196    0.0000 O   0  0
   -8.9814   -2.9992    0.0000 C   0  0
   -8.2701   -5.9126    0.0000 C   0  0
   -7.9164   -7.3703    0.0000 C   0  0
   -9.0046   -8.4038    0.0000 N   0  0
   -8.6534   -9.8621    0.0000 C   0  0
  -10.4441   -7.9790    0.0000 C   0  0
  -11.5323   -9.0126    0.0000 C   0  0
  -12.9718   -8.5878    0.0000 N   0  0
  -14.0594   -9.6207    0.0000 C   0  0
  -13.3230   -7.1295    0.0000 C   0  0
  1  2  2  0
  2  3  1  0
  3  4  2  0
  3  5  1  0
  5  6  1  0
  6  7  2  0
  7  8  1  0
  8  9  1  0
  9 10  1  0
 10 11  2  0
 11 12  1  0
 12 13  2  0
 13 14  1  0
 13 15  1  0
 15 16  1  0
 16 17  2  0
 17 18  1  0
 18 19  1  0
 18 20  1  0
 20 21  2  0
 21 22  1  0
 22 23  2  0
 23 24  1  0
 24 25  2  0
 25 16  1  0
 25 20  1  0
 15 26  2  0
 26 10  1  0
  8 27  2  0
 27 28  1  0
 28 29  1  0
 27 30  1  0
 30 31  2  0
 31  6  1  0
 31 32  1  0
 32 33  1  0
 32 34  1  0
 34 35  1  0
 35 36  1  0
 36 37  1  0
 36 38  1  0
M  END
> <Name>
CHEMBL3353409

> <pChEMBL_Value>
4.15

$$$$
